Circuit: * C:\Users\otavi\Git\circuitos_eletronicos_ii\PROJETO\circuito_1.asc

Instance "m2": Length shorter than recommended for a level 1 MOSFET.

Date: Mon Aug 26 22:09:24 2019
Total elapsed time: 0.087 seconds.

tnom = 27
temp = 27
method = trap
totiter = 1004
traniter = 0
tranpoints = 0
accept = 0
rejected = 0
matrix size = 5
fillins = 0
solver = Normal
Matrix Compiler1: 114 bytes object code size  0.1/0.1/[0.1]
Matrix Compiler2: 301 bytes object code size  0.1/0.1/[0.1]

