Circuit: * C:\Users\otavi\Git\circuitos_eletronicos_ii\PROJETO\circuito_2.asc

Instance "m1": Length shorter than recommended for a level 1 MOSFET.
Instance "m2": Length shorter than recommended for a level 1 MOSFET.

Date: Sat Aug 31 16:15:10 2019
Total elapsed time: 0.076 seconds.

tnom = 27
temp = 27
method = trap
totiter = 1007
traniter = 0
tranpoints = 0
accept = 0
rejected = 0
matrix size = 6
fillins = 0
solver = Normal
Matrix Compiler1: 164 bytes object code size  0.1/0.1/[0.1]
Matrix Compiler2: 414 bytes object code size  0.1/0.1/[0.1]

