Circuit: * C:\Users\Sumi\Git\circuitos_eletronicos_ii\PROJETO\circuito_3.asc

Instance "m3": Length shorter than recommended for a level 1 MOSFET.
Instance "m2": Length shorter than recommended for a level 1 MOSFET.
Instance "m1": Length shorter than recommended for a level 1 MOSFET.
Direct Newton iteration for .op point succeeded.

Date: Sun Nov 24 15:55:07 2019
Total elapsed time: 0.068 seconds.

tnom = 27
temp = 27
method = trap
totiter = 5
traniter = 0
tranpoints = 0
accept = 0
rejected = 0
matrix size = 15
fillins = 4
solver = Normal
Matrix Compiler1:      60 opcodes
Matrix Compiler2: 1.24 KB object code size
