Circuit: * C:\Users\otavi\Git\circuitos_eletronicos_ii\PROJETO\circuito_2.asc

Instance "m3": Length shorter than recommended for a level 1 MOSFET.
Instance "m2": Length shorter than recommended for a level 1 MOSFET.
Instance "m1": Length shorter than recommended for a level 1 MOSFET.
.step v2=0
.step v2=0.01
.step v2=0.02
.step v2=0.03
.step v2=0.04
.step v2=0.05
.step v2=0.06
.step v2=0.07
.step v2=0.08
.step v2=0.09
.step v2=0.1
.step v2=0.11
.step v2=0.12
.step v2=0.13
.step v2=0.14
.step v2=0.15
.step v2=0.16
.step v2=0.17
.step v2=0.18
.step v2=0.19
.step v2=0.2
.step v2=0.21
.step v2=0.22
.step v2=0.23
.step v2=0.24
.step v2=0.25
.step v2=0.26
.step v2=0.27
.step v2=0.28
.step v2=0.29
.step v2=0.3
.step v2=0.31
.step v2=0.32
.step v2=0.33
.step v2=0.34
.step v2=0.35
.step v2=0.36
.step v2=0.37
.step v2=0.38
.step v2=0.39
.step v2=0.4
.step v2=0.41
.step v2=0.42
.step v2=0.43
.step v2=0.44
.step v2=0.45
.step v2=0.46
.step v2=0.47
.step v2=0.48
.step v2=0.49
.step v2=0.5
.step v2=0.51
.step v2=0.52
.step v2=0.53
.step v2=0.54
.step v2=0.55
.step v2=0.56
.step v2=0.57
.step v2=0.58
.step v2=0.59
.step v2=0.6
.step v2=0.61
.step v2=0.62
.step v2=0.63
.step v2=0.64
.step v2=0.65
.step v2=0.66
.step v2=0.67
.step v2=0.68
.step v2=0.69
.step v2=0.7
.step v2=0.71
.step v2=0.72
.step v2=0.73
.step v2=0.74
.step v2=0.75
.step v2=0.76
.step v2=0.77
.step v2=0.78
.step v2=0.79
.step v2=0.8
.step v2=0.81
.step v2=0.82
.step v2=0.83
.step v2=0.84
.step v2=0.85
.step v2=0.86
.step v2=0.87
.step v2=0.88
.step v2=0.89
.step v2=0.9
.step v2=0.91
.step v2=0.92
.step v2=0.93
.step v2=0.94
.step v2=0.95
.step v2=0.96
.step v2=0.97
.step v2=0.98
.step v2=0.99
.step v2=1
.step v2=1.01
.step v2=1.02
.step v2=1.03
.step v2=1.04
.step v2=1.05
.step v2=1.06
.step v2=1.07
.step v2=1.08
.step v2=1.09
.step v2=1.1
.step v2=1.11
.step v2=1.12
.step v2=1.13
.step v2=1.14
.step v2=1.15
.step v2=1.16
.step v2=1.17
.step v2=1.18
.step v2=1.19
.step v2=1.2
.step v2=1.21
.step v2=1.22
.step v2=1.23
.step v2=1.24
.step v2=1.25
.step v2=1.26
.step v2=1.27
.step v2=1.28
.step v2=1.29
.step v2=1.3
.step v2=1.31
.step v2=1.32
.step v2=1.33
.step v2=1.34
.step v2=1.35
.step v2=1.36
.step v2=1.37
.step v2=1.38
.step v2=1.39
.step v2=1.4
.step v2=1.41
.step v2=1.42
.step v2=1.43
.step v2=1.44
.step v2=1.45
.step v2=1.46
.step v2=1.47
.step v2=1.48
.step v2=1.49
.step v2=1.5
.step v2=1.51
.step v2=1.52
.step v2=1.53
.step v2=1.54
.step v2=1.55
.step v2=1.56
.step v2=1.57
.step v2=1.58
.step v2=1.59
.step v2=1.6
.step v2=1.61
.step v2=1.62
.step v2=1.63
.step v2=1.64
.step v2=1.65
.step v2=1.66
.step v2=1.67
.step v2=1.68
.step v2=1.69
.step v2=1.7
.step v2=1.71
.step v2=1.72
.step v2=1.73
.step v2=1.74
.step v2=1.75
.step v2=1.76
.step v2=1.77
.step v2=1.78
.step v2=1.79
.step v2=1.8
.step v2=1.81
.step v2=1.82
.step v2=1.83
.step v2=1.84
.step v2=1.85
.step v2=1.86
.step v2=1.87
.step v2=1.88
.step v2=1.89
.step v2=1.9
.step v2=1.91
.step v2=1.92
.step v2=1.93
.step v2=1.94
.step v2=1.95
.step v2=1.96
.step v2=1.97
.step v2=1.98
.step v2=1.99
.step v2=2
.step v2=2.01
.step v2=2.02
.step v2=2.03
.step v2=2.04
.step v2=2.05
.step v2=2.06
.step v2=2.07
.step v2=2.08
.step v2=2.09
.step v2=2.1
.step v2=2.11
.step v2=2.12
.step v2=2.13
.step v2=2.14
.step v2=2.15
.step v2=2.16
.step v2=2.17
.step v2=2.18
.step v2=2.19
.step v2=2.2
.step v2=2.21
.step v2=2.22
.step v2=2.23
.step v2=2.24
.step v2=2.25
.step v2=2.26
.step v2=2.27
.step v2=2.28
.step v2=2.29
.step v2=2.3
.step v2=2.31
.step v2=2.32
.step v2=2.33
.step v2=2.34
.step v2=2.35
.step v2=2.36
.step v2=2.37
.step v2=2.38
.step v2=2.39
.step v2=2.4
.step v2=2.41
.step v2=2.42
.step v2=2.43
.step v2=2.44
.step v2=2.45
.step v2=2.46
.step v2=2.47
.step v2=2.48
.step v2=2.49
.step v2=2.5
.step v2=2.51
.step v2=2.52
.step v2=2.53
.step v2=2.54
.step v2=2.55
.step v2=2.56
.step v2=2.57
.step v2=2.58
.step v2=2.59
.step v2=2.6
.step v2=2.61
.step v2=2.62
.step v2=2.63
.step v2=2.64
.step v2=2.65
.step v2=2.66
.step v2=2.67
.step v2=2.68
.step v2=2.69
.step v2=2.7
.step v2=2.71
.step v2=2.72
.step v2=2.73
.step v2=2.74
.step v2=2.75
.step v2=2.76
.step v2=2.77
.step v2=2.78
.step v2=2.79
.step v2=2.8
.step v2=2.81
.step v2=2.82
.step v2=2.83
.step v2=2.84
.step v2=2.85
.step v2=2.86
.step v2=2.87
.step v2=2.88
.step v2=2.89
.step v2=2.9
.step v2=2.91
.step v2=2.92
.step v2=2.93
.step v2=2.94
.step v2=2.95
.step v2=2.96
.step v2=2.97
.step v2=2.98
.step v2=2.99
.step v2=3
.step v2=3.01
.step v2=3.02
.step v2=3.03
.step v2=3.04
.step v2=3.05
.step v2=3.06
.step v2=3.07
.step v2=3.08
.step v2=3.09
.step v2=3.1
.step v2=3.11
.step v2=3.12
.step v2=3.13
.step v2=3.14
.step v2=3.15
.step v2=3.16
.step v2=3.17
.step v2=3.18
.step v2=3.19
.step v2=3.2
.step v2=3.21
.step v2=3.22
.step v2=3.23
.step v2=3.24
.step v2=3.25
.step v2=3.26
.step v2=3.27
.step v2=3.28
.step v2=3.29
.step v2=3.3
.step v2=3.31
.step v2=3.32
.step v2=3.33
.step v2=3.34
.step v2=3.35
.step v2=3.36
.step v2=3.37
.step v2=3.38
.step v2=3.39
.step v2=3.4
.step v2=3.41
.step v2=3.42
.step v2=3.43
.step v2=3.44
.step v2=3.45
.step v2=3.46
.step v2=3.47
.step v2=3.48
.step v2=3.49
.step v2=3.5
.step v2=3.51
.step v2=3.52
.step v2=3.53
.step v2=3.54
.step v2=3.55
.step v2=3.56
.step v2=3.57
.step v2=3.58
.step v2=3.59
.step v2=3.6
.step v2=3.61
.step v2=3.62
.step v2=3.63
.step v2=3.64
.step v2=3.65
.step v2=3.66
.step v2=3.67
.step v2=3.68
.step v2=3.69
.step v2=3.7
.step v2=3.71
.step v2=3.72
.step v2=3.73
.step v2=3.74
.step v2=3.75
.step v2=3.76
.step v2=3.77
.step v2=3.78
.step v2=3.79
.step v2=3.8
.step v2=3.81
.step v2=3.82
.step v2=3.83
.step v2=3.84
.step v2=3.85
.step v2=3.86
.step v2=3.87
.step v2=3.88
.step v2=3.89
.step v2=3.9
.step v2=3.91
.step v2=3.92
.step v2=3.93
.step v2=3.94
.step v2=3.95
.step v2=3.96
.step v2=3.97
.step v2=3.98
.step v2=3.99
.step v2=4
.step v2=4.01
.step v2=4.02
.step v2=4.03
.step v2=4.04
.step v2=4.05
.step v2=4.06
.step v2=4.07
.step v2=4.08
.step v2=4.09
.step v2=4.1
.step v2=4.11
.step v2=4.12
.step v2=4.13
.step v2=4.14
.step v2=4.15
.step v2=4.16
.step v2=4.17
.step v2=4.18
.step v2=4.19
.step v2=4.2
.step v2=4.21
.step v2=4.22
.step v2=4.23
.step v2=4.24
.step v2=4.25
.step v2=4.26
.step v2=4.27
.step v2=4.28
.step v2=4.29
.step v2=4.3
.step v2=4.31
.step v2=4.32
.step v2=4.33
.step v2=4.34
.step v2=4.35
.step v2=4.36
.step v2=4.37
.step v2=4.38
.step v2=4.39
.step v2=4.4
.step v2=4.41
.step v2=4.42
.step v2=4.43
.step v2=4.44
.step v2=4.45
.step v2=4.46
.step v2=4.47
.step v2=4.48
.step v2=4.49
.step v2=4.5
.step v2=4.51
.step v2=4.52
.step v2=4.53
.step v2=4.54
.step v2=4.55
.step v2=4.56
.step v2=4.57
.step v2=4.58
.step v2=4.59
.step v2=4.6
.step v2=4.61
.step v2=4.62
.step v2=4.63
.step v2=4.64
.step v2=4.65
.step v2=4.66
.step v2=4.67
.step v2=4.68
.step v2=4.69
.step v2=4.7
.step v2=4.71
.step v2=4.72
.step v2=4.73
.step v2=4.74
.step v2=4.75
.step v2=4.76
.step v2=4.77
.step v2=4.78
.step v2=4.79
.step v2=4.8
.step v2=4.81
.step v2=4.82
.step v2=4.83
.step v2=4.84
.step v2=4.85
.step v2=4.86
.step v2=4.87
.step v2=4.88
.step v2=4.89
.step v2=4.9
.step v2=4.91
.step v2=4.92
.step v2=4.93
.step v2=4.94
.step v2=4.95
.step v2=4.96
.step v2=4.97
.step v2=4.98
.step v2=4.99
.step v2=5

Date: Mon Sep 02 21:16:28 2019
Total elapsed time: 3.326 seconds.

tnom = 27
temp = 27
method = trap
totiter = 504899
traniter = 0
tranpoints = 0
accept = 0
rejected = 0
matrix size = 11
fillins = 0
solver = Normal
Matrix Compiler1: 378 bytes object code size  0.2/0.1/[0.1]
Matrix Compiler2: 807 bytes object code size  0.1/0.2/[0.1]

