Circuit: * C:\Users\otavi\Git\circuitos_eletronicos_ii\PROJETO\circuito_1.asc

Instance "m2": Length shorter than recommended for a level 1 MOSFET.
Direct Newton iteration for .op point succeeded.

Date: Sat Aug 31 15:57:07 2019
Total elapsed time: 0.114 seconds.

tnom = 27
temp = 27
method = modified trap
totiter = 2088
traniter = 2083
tranpoints = 1042
accept = 1042
rejected = 0
matrix size = 6
fillins = 0
solver = Normal
Matrix Compiler1: 200 bytes object code size  0.1/0.1/[0.0]
Matrix Compiler2: 402 bytes object code size  0.1/0.1/[0.1]

