Circuit: * C:\Users\otavi\Git\circuitos_eletronicos_ii\PROJETO\Draft1.asc

Direct Newton iteration for .op point succeeded.

Date: Wed Aug 21 21:52:44 2019
Total elapsed time: 12.339 seconds.

tnom = 27
temp = 27
method = trap
totiter = 3
traniter = 0
tranpoints = 0
accept = 0
rejected = 0
matrix size = 2
fillins = 0
solver = Normal
Matrix Compiler1: 36 bytes object code size
Matrix Compiler2: 96 bytes object code size
