Circuit: * C:\Users\Sumi\Desktop\PROJETO\Draft3.asc

Direct Newton iteration failed to find .op point.  (Use ".option noopiter" to skip.)
Starting Gmin stepping
Gmin = 10
Gmin = 1.07374
Gmin = 0.115292
Gmin = 0.0123794
Gmin = 0.00132923
vernier = 0.5
vernier = 0.25
Gmin = 0.000630435
vernier = 0.333333
vernier = 0.444444
Gmin = 0.00027983
vernier = 0.592592
Gmin = 8.01452e-005
vernier = 0.790123
vernier = 1
Gmin = 1.11306e-005
Gmin = 1.19514e-006
Gmin = 1.28327e-007
Gmin = 1.3779e-008
Gmin = 1.47951e-009
Gmin = 1.58861e-010
Gmin = 1.70576e-011
Gmin = 1.83154e-012
Gmin = 1.9666e-013
Gmin = 0
Gmin stepping succeeded in finding the operating point.

Direct Newton iteration failed to find .op point.  (Use ".option noopiter" to skip.)
Starting Gmin stepping
Gmin = 10
Gmin = 1.07374
Gmin = 0.115292
Gmin = 0.0123794
vernier = 0.5
vernier = 0.25
Gmin = 0.00360576
vernier = 0.125
vernier = 0.166667
Gmin = 0.00273521
vernier = 0.222222
vernier = 0.296296
Gmin = 0.00162886
vernier = 0.395061
Gmin = 0.000711522
vernier = 0.526748
vernier = 0.702331
Gmin = 0.000189743
vernier = 0.936441
vernier = 1
Gmin = 2.64467e-005
Gmin = 2.8397e-006
Gmin = 3.0491e-007
Gmin = 3.27395e-008
Gmin = 3.51537e-009
Gmin = 3.7746e-010
Gmin = 4.05295e-011
Gmin = 4.35182e-012
Gmin = 4.67273e-013
Gmin = 0
Gmin stepping succeeded in finding the operating point.


Date: Mon Aug 26 21:44:01 2019
Total elapsed time: 0.048 seconds.

tnom = 27
temp = 27
method = trap
totiter = 2463
traniter = 0
tranpoints = 0
accept = 0
rejected = 0
matrix size = 9
fillins = 0
solver = Normal
Matrix Compiler1:      22 opcodes  0.1/[0.1]/0.1
Matrix Compiler2: off  [0.1]/0.1/0.1

