Circuit: * C:\Users\otavi\Git\circuitos_eletronicos_ii\PROJETO\Setup.asc

Model "pmosx": Oxide thickness thinner than recommended for a level 2 MOSFET.
Instance "m2": Length shorter than recommended for a level 2 MOSFET.
Model "nmosx": Oxide thickness thinner than recommended for a level 2 MOSFET.
Instance "m1": Length shorter than recommended for a level 2 MOSFET.
Direct Newton iteration failed to find .op point.  (Use ".option noopiter" to skip.)
Starting Gmin stepping
Gmin = 10
Gmin = 1.07374
Gmin = 0.115292
Gmin = 0.0123794
Gmin = 0.00132923
vernier = 0.5
vernier = 0.25
vernier = 0.125
vernier = 0.0625
Gmin = 0.00134792
vernier = 0.03125
vernier = 0.015625
vernier = 0.0078125
vernier = 0.00390625
vernier = 0.00195313
vernier = 0.000976563
Gmin = 0.00134268
vernier = 0.000488281
Gmin = 0
Gmin stepping failed

Starting source stepping with srcstepmethod=0
Source Step = 3.0303%
Source Step = 10.464%
vernier = 0.00390625
Source Step = 10.4433%
Source Step = 10.4729%
Source Step = 10.5025%
Source Step = 10.5321%
Source Step = 10.5617%
vernier = 0.00146484
Source Step = 10.6016%
Source Step = 10.646%
Source Step = 10.6904%
Source Step = 10.7348%
Source Step = 10.7792%
vernier = 0.00219727
Source Step = 10.8369%
Source Step = 10.9035%
Source Step = 10.9701%
Source Step = 11.0366%
Source Step = 11.1032%
vernier = 0.0032959
Source Step = 11.1864%
Source Step = 11.2863%
Source Step = 11.3862%
Source Step = 11.4861%
Source Step = 11.586%
Source Step = 11.6858%
vernier = 0.00494385
Source Step = 11.8356%
Source Step = 11.9855%
Source Step = 12.1353%
Source Step = 12.2851%
Source Step = 12.4349%
vernier = 0.00741577
Source Step = 12.6521%
Source Step = 12.8768%
Source Step = 13.1016%
Source Step = 13.3263%
Source Step = 13.551%
vernier = 0.0111237
Source Step = 13.8656%
Source Step = 14.0679%
Source Step = 14.1521%
Source Step = 14.2364%
Source Step = 14.3207%
Source Step = 14.4049%
vernier = 0.00417137
Source Step = 14.4976%
Source Step = 14.624%
Source Step = 14.7505%
Source Step = 14.8769%
Source Step = 15.0033%
vernier = 0.00625706
Source Step = 15.136%
Source Step = 15.3256%
Source Step = 15.5152%
Source Step = 15.7048%
Source Step = 15.8944%
Source Step = 16.084%
vernier = 0.00938559
Source Step = 16.3684%
Source Step = 16.6528%
Source Step = 16.9373%
Source Step = 17.2217%
Source Step = 17.5061%
vernier = 0.0140784
Source Step = 17.9185%
Source Step = 18.3451%
Source Step = 18.7717%
Source Step = 19.1983%
Source Step = 19.625%
vernier = 0.0211176
Source Step = 20.2222%
Source Step = 20.8621%
Source Step = 21.5021%
Source Step = 22.142%
Source Step = 22.7819%
vernier = 0.0316764
Source Step = 23.6458%
Source Step = 24.6057%
Source Step = 25.5656%
Source Step = 26.5255%
Source Step = 27.4854%
vernier = 0.0475145
Source Step = 28.4813%
vernier = 0.00296966
Source Step = 28.5353%
Source Step = 28.6252%
Source Step = 28.7152%
Source Step = 28.8052%
Source Step = 28.8952%
vernier = 0.00445449
Source Step = 29.0212%
Source Step = 29.1562%
Source Step = 29.2912%
Source Step = 29.4262%
Source Step = 29.5611%
vernier = 0.00668173
Source Step = 29.7434%
Source Step = 29.9458%
Source Step = 30.1483%
Source Step = 30.3508%
Source Step = 30.5533%
vernier = 0.0100226
Source Step = 30.8165%
Source Step = 31.1202%
Source Step = 31.4239%
Source Step = 31.7276%
Source Step = 32.0314%
vernier = 0.0150339
Source Step = 32.411%
Source Step = 32.8666%
Source Step = 33.3221%
Source Step = 33.7777%
Source Step = 34.2333%
vernier = 0.0225508
Source Step = 34.78%
Source Step = 35.4633%
Source Step = 36.1467%
Source Step = 36.8301%
Source Step = 37.5134%
vernier = 0.0338263
Source Step = 38.2993%
Source Step = 39.3243%
Source Step = 40.3494%
Source Step = 41.3744%
Source Step = 42.3994%
vernier = 0.0507394
Source Step = 43.527%
Source Step = 45.0645%
Source Step = 46.6021%
Source Step = 48.1396%
Source Step = 49.6772%
vernier = 0.0761091
Source Step = 51.2916%
Source Step = 53.598%
Source Step = 55.9043%
Source Step = 58.2106%
Source Step = 60.517%
Source Step = 62.8233%
vernier = 0.114164
Source Step = 66.2828%
Source Step = 69.7423%
Source Step = 73.2018%
Source Step = 76.6613%
Source Step = 80.1208%
vernier = 0.171245
Source Step = 85.1371%
Source Step = 90.3264%
Source Step = 90.3831%
Source Step = 90.4642%
Source Step = 90.5453%
Source Step = 90.6264%
Source Step = 90.7075%
Source Step = 90.7885%
Source Step = 90.8696%
Source Step = 90.9507%
Source Step = 91.0318%
Source Step = 91.1129%
Source Step = 91.1939%
Source Step = 91.275%
Source Step = 91.3561%
Source Step = 91.4372%
Source Step = 91.5183%
Source Step = 91.5994%
Source Step = 91.6804%
Source Step = 91.7615%
Source Step = 91.8426%
Source Step = 91.9237%
Source Step = 92.0048%
Source Step = 92.0859%
Source Step = 92.1669%
Source Step = 92.248%
Source Step = 92.3291%
Source Step = 92.4102%
Source Step = 92.4913%
Source Step = 92.5723%
Source Step = 92.6534%
Source Step = 92.7345%
Source Step = 92.8156%
Source Step = 92.8967%
Source Step = 92.9778%
Source Step = 93.0588%
Source Step = 93.1399%
Source Step = 93.221%
Source Step = 93.3021%
Source Step = 93.3832%
Source Step = 93.4642%
Source Step = 93.5453%
Source Step = 93.6264%
Source Step = 93.7075%
Source Step = 93.7886%
Source Step = 93.8697%
Source Step = 93.9507%
Source Step = 94.0318%
Source Step = 94.1129%
Source Step = 94.194%
Source Step = 94.2751%
Source Step = 94.3562%
Source Step = 94.4372%
Source Step = 94.5183%
Source Step = 94.5994%
Source Step = 94.6805%
Source Step = 94.7616%
Source Step = 94.8426%
Source Step = 94.9237%
Source Step = 95.0048%
Source Step = 95.0859%
Source Step = 95.167%
Source Step = 95.2481%
Source Step = 95.3291%
Source Step = 95.4102%
Source Step = 95.4913%
Source Step = 95.5724%
Source Step = 95.6535%
Source Step = 95.7345%
Source Step = 95.8156%
Source Step = 95.8967%
Source Step = 95.9778%
Source Step = 96.0589%
Source Step = 96.14%
Source Step = 96.221%
Source Step = 96.3021%
Source Step = 96.3832%
Source Step = 96.4643%
Source Step = 96.5454%
Source Step = 96.6265%
Source Step = 96.7075%
Source Step = 96.7886%
Source Step = 96.8697%
Source Step = 96.9508%
Source Step = 97.0319%
Source Step = 97.1129%
Source Step = 97.194%
Source Step = 97.2751%
Source Step = 97.3562%
Source Step = 97.4373%
Source Step = 97.5184%
Source Step = 97.5994%
Source Step = 97.6805%
Source Step = 97.7616%
Source Step = 97.8427%
Source Step = 97.9238%
Source Step = 98.0048%
Source Step = 98.0859%
Source Step = 98.167%
Source Step = 98.2481%
Source Step = 98.3292%
Source Step = 98.4103%
Source Step = 98.4913%
Source Step = 98.5724%
Source Step = 98.6535%
Source Step = 98.7346%
Source Step = 98.8157%
Source Step = 98.8968%
Source Step = 98.9778%
Source Step = 99.0589%
Source Step = 99.14%
Source Step = 99.2211%
Source Step = 99.3022%
Source Step = 99.3832%
Source Step = 99.4643%
Source Step = 99.5454%
Source Step = 99.6265%
Source Step = 99.7076%
Source Step = 99.7887%
Source Step = 99.8697%
Source Step = 99.9508%
Source Step = 100%
Source Step = 100%
Source Step = 100%
Source Step = 100%
Source Step = 100%
Source Step = 100%
Source Step = 100%
Source Step = 100%
Source Step = 100%
Source Step = 100%
Source Step = 100%
Source Step = 100%
Source Step = 100%
Source Step = 100%
Source Step = 100%
Source Step = 100%
Source Step = 100%
Source Step = 100%
Source Step = 100%
Source Step = 100%
Source Step = 100%
Source Step = 100%
Source Step = 100%
Source Step = 100%
Source Step = 100%
Source Step = 100%
Source Step = 100%
Source Step = 100%
Source Step = 100%
Source Step = 100%
Source Step = 100%
Source Step = 100%
Source Step = 100%
Source Step = 100%
Source Step = 100%
Source Step = 100%
Source Step = 100%
Source Step = 100%
Source Step = 100%
Source Step = 100%
Source Step = 100%
Source Step = 100%
Source Step = 100%
Source Step = 100%
Source Step = 100%
Source Step = 100%
Source Step = 100%
Source Step = 100%
Source Step = 100%
Source Step = 100%
Source Step = 100%
Source Step = 100%
Source Step = 100%
Source Step = 100%
Source Step = 100%
Source Step = 100%
Source Step = 100%
Source Step = 100%
Source Step = 100%
Source Step = 100%
Source Step = 100%
Source Step = 100%
Source Step = 100%
Source Step = 100%
Source Step = 100%
Source Step = 100%
Source Step = 100%
Source Step = 100%
Source Step = 100%
Source Step = 100%
Source Step = 100%
Source Step = 100%
Source Step = 100%
Source Step = 100%
Source Step = 100%
Source Step = 100%
Source Step = 100%
Source Step = 100%
Source Step = 100%
Source Step = 100%
Source Step = 100%
Source Step = 100%
Source Step = 100%
Source Step = 100%
Source Step = 100%
Source Step = 100%
Source Step = 100%
Source Step = 100%
Source Step = 100%
Source Step = 100%
Source Step = 100%
Source Step = 100%
Source Step = 100%
Source Step = 100%
Source Step = 100%
Source Step = 100%
Source Step = 100%
Source Step = 100%
Source Step = 100%
Source Step = 100%
Source Step = 100%
Source Step = 100%
Source Step = 100%
Source Step = 100%
Source Step = 100%
Source Step = 100%
Source Step = 100%
Source Step = 100%
Source Step = 100%
Source Step = 100%
Source Step = 100%
Source Step = 100%
Source Step = 100%
Source Step = 100%
Source Step = 100%
Source Step = 100%
Source Step = 100%
Source Step = 100%
Source Step = 100%
Source Step = 100%
Source Step = 100%
Source Step = 100%
Source Step = 100%
Source Step = 100%
Source Step = 100%
Source Step = 100%
Source Step = 100%
Source Step = 100%
Source Step = 100%
Source Step = 100%
Source Step = 100%
Source Step = 100%
Source Step = 100%
Source Step = 100%
Source Step = 100%
Source Step = 100%
Source Step = 100%
Source Step = 100%
Source Step = 100%
Source Step = 100%
Source Step = 100%
Source Step = 100%
Source Step = 100%
Source Step = 100%
Source Step = 100%
Source Step = 100%
Source Step = 100%
Source Step = 100%
Source Step = 100%
Source Step = 100%
Source Step = 100%
Source Step = 100%
Source Step = 100%
Source Step = 100%
Source Step = 100%
Source Step = 100%
Source Step = 100%
Source Step = 100%
Source Step = 100%
Source Step = 100%
Source Step = 100%
Source Step = 100%
Source Step = 100%
Source Step = 100%
Source Step = 100%
Source Step = 100%
Source Step = 100%
Source Step = 100%
Source Step = 100%
Source Step = 100%
Source Step = 100%
Source Step = 100%
Source Step = 100%
Source Step = 100%
Source Step = 100%
Source Step = 100%
Source Step = 100%
Source Step = 100%
Source Step = 100%
Source Step = 100%
Source Step = 100%
Source Step = 100%
Source Step = 100%
Source Step = 100%
Source Step = 100%
Source Step = 100%
Source Step = 100%
Source Step = 100%
Source Step = 100%
Source Step = 100%
Source Step = 100%
Source Step = 100%
Source Step = 100%
Source Step = 100%
Source Step = 100%
Source Step = 100%
Source Step = 100%
Source Step = 100%
Source Step = 100%
Source Step = 100%
Source Step = 100%
Source Step = 100%
Source Step = 100%
Source Step = 100%
Source Step = 100%
Source Step = 100%
Source Step = 100%
Source Step = 100%
Source Step = 100%
Source Step = 100%
Source Step = 100%
Source Step = 100%
Source Step = 100%
Source Step = 100%
Source Step = 100%
Source Step = 100%
Source Step = 100%
Source Step = 100%
Source Step = 100%
Source Step = 100%
Source Step = 100%
Source Step = 100%
Source Step = 100%
Source Step = 100%
Source Step = 100%
Source Step = 100%
Source Step = 100%
Source Step = 100%
Source Step = 100%
Source Step = 100%
Source Step = 100%
Source Step = 100%
Source Step = 100%
Source Step = 100%
Source Step = 100%
Source Step = 100%
Source Step = 100%
Source Step = 100%
Source Step = 100%
Source Step = 100%
Source Step = 100%
Source Step = 100%
Source Step = 100%
Source Step = 100%
Source Step = 100%
Source Step = 100%
Source Step = 100%
Source Step = 100%
Source Step = 100%
Source Step = 100%
Source Step = 100%
Source Step = 100%
Source Step = 100%
Source Step = 100%
Source Step = 100%
Source Step = 100%
Source Step = 100%
Source Step = 100%
Source Step = 100%
Source Step = 100%
Source Step = 100%
Source Step = 100%
Source Step = 100%
Source Step = 100%
Source Step = 100%
Source Step = 100%
Source Step = 100%
Source Step = 100%
Source Step = 100%
Source Step = 100%
Source Step = 100%
Source Step = 100%
Source Step = 100%
Source Step = 100%
Source Step = 100%
Source Step = 100%
Source Step = 100%
Source Step = 100%
Source Step = 100%
Source Step = 100%
Source Step = 100%
Source Step = 100%
Source Step = 100%
Source Step = 100%
Source Step = 100%
Source Step = 100%
Source Step = 100%
Source Step = 100%
Source Step = 100%
Source Step = 100%
Source Step = 100%
Source Step = 100%
Source Step = 100%
Source Step = 100%
Source Step = 100%
Source Step = 100%
Source Step = 100%
Source Step = 100%
Source Step = 100%
Source Step = 100%
Source Step = 100%
Source Step = 100%
Source Step = 100%
Source Step = 100%
Source Step = 100%
Source Step = 100%
Source Step = 100%
Source Step = 100%
Source Step = 100%
Source Step = 100%
Source Step = 100%
Source Step = 100%
Source Step = 100%
Source Step = 100%
Source Step = 100%
Source Step = 100%
Source Step = 100%
Source Step = 100%
Source Step = 100%
Source Step = 100%
Source Step = 100%
Source Step = 100%
Source Step = 100%
Source Step = 100%
Source Step = 100%
Source Step = 100%
Source Step = 100%
Source Step = 100%
Source Step = 100%
Source Step = 100%
Source Step = 100%
Source Step = 100%
Source Step = 100%
Source Step = 100%
Source Step = 100%
Source Step = 100%
Source Step = 100%
Source Step = 100%
Source Step = 100%
Source Step = 100%
Source Step = 100%
Source Step = 100%
Source Step = 100%
Source Step = 100%
Source Step = 100%
Source Step = 100%
Source Step = 100%
Source Step = 100%
Source Step = 100%
Source Step = 100%
Source Step = 100%
Source Step = 100%
Source Step = 100%
Source Step = 100%
Source Step = 100%
Source Step = 100%
Source Step = 100%
Source Step = 100%
Source Step = 100%
Source Step = 100%
Source Step = 100%
Source Step = 100%
Source Step = 100%
Source Step = 100%
Source Step = 100%
Source Step = 100%
Source Step = 100%
Source Step = 100%
Source Step = 100%
Source Step = 100%
Source Step = 100%
Source Step = 100%
Source Step = 100%
Source Step = 100%
Source Step = 100%
Source Step = 100%
Source Step = 100%
Source Step = 100%
Source Step = 100%
Source Step = 100%
Source Step = 100%
Source Step = 100%
Source Step = 100%
Source Step = 100%
Source Step = 100%
Source Step = 100%
Source Step = 100%
Source Step = 100%
Source Step = 100%
Source Step = 100%
Source Step = 100%
Source Step = 100%
Source Step = 100%
Source Step = 100%
Source Step = 100%
Source Step = 100%
Source Step = 100%
Source Step = 100%
Source Step = 100%
Source Step = 100%
Source Step = 100%
Source Step = 100%
Source Step = 100%
Source Step = 100%
Source Step = 100%
Source Step = 100%
Source Step = 100%
Source Step = 100%
Source Step = 100%
Source Step = 100%
Source Step = 100%
Source Step = 100%
Source Step = 100%
Source Step = 100%
Source Step = 100%
Source Step = 100%
Source Step = 100%
Source Step = 100%
Source Step = 100%
Source Step = 100%
Source Step = 100%
Source Step = 100%
Source Step = 100%
Source Step = 100%
Source Step = 100%
Source Step = 100%
Source Step = 100%
Source Step = 100%
Source Step = 100%
Source Step = 100%
Source Step = 100%
Source Step = 100%
Source Step = 100%
Source Step = 100%
Source Step = 100%
Source Step = 100%
Source Step = 100%
Source Step = 100%
Source Step = 100%
Source Step = 100%
Source Step = 100%
Source Step = 100%
Source Step = 100%
Source Step = 100%
Source Step = 100%
Source Step = 100%
Source Step = 100%
Source Step = 100%
Source Step = 100%
Source Step = 100%
Source Step = 100%
Source Step = 100%
Source Step = 100%
Source Step = 100%
Source Step = 100%
Source Step = 100%
Source Step = 100%
Source Step = 100%
Source Step = 100%
Source Step = 100%
Source Step = 100%
Source Step = 100%
Source Step = 100%
Source Step = 100%
Source Step = 100%
Source Step = 100%
Source Step = 100%
Source Step = 100%
Source Step = 100%
Source Step = 100%
Source Step = 100%
Source Step = 100%
Source Step = 100%
Source Step = 100%
Source Step = 100%
Source Step = 100%
Source Step = 100%
Source Step = 100%
Source Step = 100%
Source Step = 100%
Source Step = 100%
Source Step = 100%
Source Step = 100%
Source Step = 100%
Source Step = 100%
Source Step = 100%
Source Step = 100%
Source Step = 100%
Source Step = 100%
Source Step = 100%
Source Step = 100%
Source Step = 100%
Source Step = 100%
Source Step = 100%
Source Step = 100%
Source Step = 100%
Source Step = 100%
Source Step = 100%
Source Step = 100%
Source Step = 100%
Source Step = 100%
Source Step = 100%
Source Step = 100%
Source Step = 100%
Source Step = 100%
Source Step = 100%
Source Step = 100%
Source Step = 100%
Source Step = 100%
Source Step = 100%
Source Step = 100%
Source Step = 100%
Source Step = 100%
Source Step = 100%
Source Step = 100%
Source Step = 100%
Source Step = 100%
Source Step = 100%
Source Step = 100%
Source Step = 100%
Source Step = 100%
Source Step = 100%
Source Step = 100%
Source Step = 100%
Source Step = 100%
Source Step = 100%
Source Step = 100%
Source Step = 100%
Source Step = 100%
Source Step = 100%
Source Step = 100%
Source Step = 100%
Source Step = 100%
Source Step = 100%
Source Step = 100%
Source Step = 100%
Source Step = 100%
Source Step = 100%
Source Step = 100%
Source Step = 100%
Source Step = 100%
Source Step = 100%
Source Step = 100%
Source Step = 100%
Source Step = 100%
Source Step = 100%
Source Step = 100%
Source Step = 100%
Source Step = 100%
Source Step = 100%
Source Step = 100%
Source Step = 100%
Source Step = 100%
Source Step = 100%
Source Step = 100%
Source Step = 100%
Source Step = 100%
Source Step = 100%
Source Step = 100%
Source Step = 100%
Source Step = 100%
Source Step = 100%
Source Step = 100%
Source Step = 100%
Source Step = 100%
Source Step = 100%
Source Step = 100%
Source Step = 100%
Source Step = 100%
Source Step = 100%
Source Step = 100%
Source Step = 100%
Source Step = 100%
Source Step = 100%
Source Step = 100%
Source Step = 100%
Source Step = 100%
Source Step = 100%
Source Step = 100%
Source Step = 100%
Source Step = 100%
Source Step = 100%
Source Step = 100%
Source Step = 100%
Source Step = 100%
Source Step = 100%
Source Step = 100%
Source Step = 100%
Source Step = 100%
Source Step = 100%
Source Step = 100%
Source Step = 100%
Source Step = 100%
Source Step = 100%
Source Step = 100%
Source Step = 100%
Source Step = 100%
Source Step = 100%
Source Step = 100%
Source Step = 100%
Source Step = 100%
Source Step = 100%
Source Step = 100%
Source Step = 100%
Source Step = 100%
Source Step = 100%
Source Step = 100%
Source Step = 100%
Source Step = 100%
Source Step = 100%
Source Step = 100%
Source Step = 100%
Source Step = 100%
Source Step = 100%
Source Step = 100%
Source Step = 100%
Source Step = 100%
Source Step = 100%
Source Step = 100%
Source Step = 100%
Source Step = 100%
Source Step = 100%
Source Step = 100%
Source Step = 100%
Source Step = 100%
Source Step = 100%
Source Step = 100%
Source Step = 100%
Source Step = 100%
Source Step = 100%
Source Step = 100%
Source Step = 100%
Source Step = 100%
Source Step = 100%
Source Step = 100%
Source Step = 100%
Source Step = 100%
Source Step = 100%
Source Step = 100%
Source Step = 100%
Source Step = 100%
Source Step = 100%
Source Step = 100%
Source Step = 100%
Source Step = 100%
Source Step = 100%
Source Step = 100%
Source Step = 100%
Source Step = 100%
Source Step = 100%
Source Step = 100%
Source Step = 100%
Source Step = 100%
Source Step = 100%
Source Step = 100%
Source Step = 100%
Source Step = 100%
Source Step = 100%
Source Step = 100%
Source Step = 100%
Source Step = 100%
Source Step = 100%
Source Step = 100%
Source Step = 100%
Source Step = 100%
Source Step = 100%
Source Step = 100%
Source Step = 100%
Source Step = 100%
Source Step = 100%
Source Step = 100%
Source Step = 100%
Source Step = 100%
Source Step = 100%
Source Step = 100%
Source Step = 100%
Source Step = 100%
Source Step = 100%
Source Step = 100%
Source Step = 100%
Source Step = 100%
Source Step = 100%
Source Step = 100%
Source Step = 100%
Source Step = 100%
Source Step = 100%
Source Step = 100%
Source Step = 100%
Source Step = 100%
Source Step = 100%
Source Step = 100%
Source Step = 100%
Source Step = 100%
Source Step = 100%
Source Step = 100%
Source Step = 100%
Source Step = 100%
Source Step = 100%
Source Step = 100%
Source Step = 100%
Source Step = 100%
Source Step = 100%
Source Step = 100%
Source Step = 100%
Source Step = 100%
Source Step = 100%
Source stepping aborted.
Starting source stepping with srcstepmethod=1
Source Step = 3.0303%
Source Step = 33.3333%
Source Step = 63.6364%
Source Step = 93.9394%
Source Step = 96.9815%
Source Step = 97.0111%
Source Step = 97.0407%
Source Step = 97.0703%
Source Step = 97.0999%
Source Step = 97.1295%
Source Step = 97.1591%
Source Step = 97.1887%
Source Step = 97.2183%
Source Step = 97.2479%
Source Step = 97.2775%
Source Step = 97.3071%
Source Step = 97.3366%
Source Step = 97.3662%
Source Step = 97.3958%
Source Step = 97.4254%
Source Step = 97.455%
Source Step = 97.4846%
Source Step = 97.5142%
Source Step = 97.5438%
Source Step = 97.5734%
Source Step = 97.603%
Source Step = 97.6326%
Source Step = 97.6622%
Source Step = 97.6918%
Source Step = 97.7214%
Source Step = 97.7509%
Source Step = 97.7805%
Source Step = 97.8101%
Source Step = 97.8397%
Source Step = 97.8693%
Source Step = 97.8989%
Source Step = 97.9285%
Source Step = 97.9581%
Source Step = 97.9877%
Source Step = 98.0173%
Source Step = 98.0469%
Source Step = 98.0765%
Source Step = 98.1061%
Source Step = 98.1357%
Source Step = 98.1652%
Source Step = 98.1948%
Source Step = 98.2244%
Source Step = 98.254%
Source Step = 98.2836%
Source Step = 98.3132%
Source Step = 98.3428%
Source Step = 98.3724%
Source Step = 98.402%
Source Step = 98.4316%
Source Step = 98.4612%
Source Step = 98.4908%
Source Step = 98.5204%
Source Step = 98.55%
Source Step = 98.5795%
Source Step = 98.6091%
Source Step = 98.6387%
Source Step = 98.6683%
Source Step = 98.6979%
Source Step = 98.7275%
Source Step = 98.7571%
Source Step = 98.7867%
Source Step = 98.8163%
Source Step = 98.8459%
Source Step = 98.8755%
Source Step = 98.9051%
Source Step = 98.9347%
Source Step = 98.9643%
Source Step = 98.9938%
Source Step = 99.0234%
Source Step = 99.053%
Source Step = 99.0826%
Source Step = 99.1122%
Source Step = 99.1418%
Source Step = 99.1714%
Source Step = 99.201%
Source Step = 99.2306%
Source Step = 99.2602%
Source Step = 99.2898%
Source Step = 99.3194%
Source Step = 99.349%
Source Step = 99.3786%
Source Step = 99.4081%
Source Step = 99.4377%
Source Step = 99.4673%
Source Step = 99.4969%
Source Step = 99.5265%
Source Step = 99.5561%
Source Step = 99.5857%
Source Step = 99.6153%
Source Step = 99.6449%
Source Step = 99.6745%
Source stepping aborted.
Pseudo Transient failed in finding the operating point at 5.05007 µs.
Trouble finding operating point....skipping operating point for Transient analysis.
Changing Tseed to 1e-007
Changing Tseed to 1e-009
Changing Tseed to 1e-006
Changing Tseed to 1e-010
Changing Tseed to 1e-005
Changing Tseed to 1e-011
to 1.01562e-011
Heightened Def Con from 1.1092e-011 +++++++++++++++++++++++++++to 1.1092e-011
Heightened Def Con from 1.1092e-011 +++++++++++++++++++++++++++++to 1.01109e-009
Heightened Def Con from 1.01241e-009 +++++++++++++++++++++++++++to 1.01241e-009
Heightened Def Con from 1.01241e-009 +++++++++++++++++++++++++++++to 2.01241e-009
Heightened Def Con from 2.01373e-009 +++++++++++++++++++++++++++to 2.01373e-009
Heightened Def Con from 2.01373e-009 +++++++++++++++++++++++++++++to 3.01373e-009
Heightened Def Con from 3.01504e-009 ++++++++++++++++++++++++++to 3.01504e-009
Heightened Def Con from 3.01504e-009 +++++++++++++++++++++++++++++to 4.01504e-009
Heightened Def Con from 4.01636e-009 ++++++++++++++++++++++++++to 4.01636e-009
Heightened Def Con from 4.01636e-009 +++++++++++++++++++++++++++++to 5.01636e-009
Heightened Def Con from 5.01768e-009 ++++++++++++++++++++++++to 5.01768e-009
Heightened Def Con from 5.01768e-009 +++++++++++++++++++++++++++++to 6.01768e-009
Heightened Def Con from 6.019e-009 +++++++++++++++++++++++++++++to 7.019e-009
Heightened Def Con from 7.02031e-009 +++++++++++++++++++++++++++++to 8.02031e-009
Heightened Def Con from 8.02163e-009 +++++++++++++++++++++++++++++to 9.02163e-009
Heightened Def Con from 9.02295e-009 ++++++++++++++++++++++++++++to 9.02295e-009
Heightened Def Con from 9.02295e-009 +++++++++++++++++++++++++++++to 1.00229e-008
Heightened Def Con from 1.00243e-008 ++++++++++++++++++++++++++++to 1.00243e-008
Heightened Def Con from 1.00243e-008 +++++++++++++++++++++++++++++to 1.10243e-008
Heightened Def Con from 1.10256e-008 +++++++++++++++++++++++++++++to 1.20256e-008
Heightened Def Con from 1.20269e-008 ++++++++++++++++++++++++++++to 1.20269e-008
Heightened Def Con from 1.20269e-008 ++++++++++++++++++++++++++++to 1.20269e-008
Heightened Def Con from 1.20269e-008 +++++++++++++++++++++++++++++to 1.30269e-008
Heightened Def Con from 1.30282e-008 ++++++++++++++++++++++++++++to 1.30282e-008
Heightened Def Con from 1.30282e-008 ++++++++++++++++++++++++++++to 1.30282e-008
Heightened Def Con from 1.30282e-008 +++++++++++++++++++++++++++++to 1.40282e-008
Heightened Def Con from 1.40295e-008 +++++++++++++++++++++++++++to 1.40295e-008
Heightened Def Con from 1.40295e-008 +++++++++++++++++++++++++++++to 1.50295e-008
Heightened Def Con from 1.50308e-008 +++++++++++++++++++++++++++to 1.50308e-008
Heightened Def Con from 1.50308e-008 +++++++++++++++++++++++++++++to 1.60308e-008
Heightened Def Con from 1.60321e-008 +++++++++++++++++++++++++++to 1.60321e-008
Heightened Def Con from 1.60321e-008 +++++++++++++++++++++++++++++to 1.70321e-008
Heightened Def Con from 1.70334e-008 ++++++++++++++++++++++++++to 1.70334e-008
Heightened Def Con from 1.70334e-008 +++++++++++++++++++++++++++++to 1.80334e-008
Heightened Def Con from 1.80347e-008 ++++++++++++++++++++++++to 1.80347e-008
Heightened Def Con from 1.80347e-008 +++++++++++++++++++++++++++++to 1.90347e-008
Heightened Def Con from 1.90361e-008 +++++++++++++++++++++++++++++to 2.00361e-008
Heightened Def Con from 2.00374e-008 +++++++++++++++++++++++++++++to 2.10374e-008
Heightened Def Con from 2.10387e-008 +++++++++++++++++++++++++++++to 2.20387e-008
Heightened Def Con from 2.204e-008 ++++++++++++++++++++++++++++to 2.204e-008
Heightened Def Con from 2.204e-008 +++++++++++++++++++++++++++++to 2.304e-008
Heightened Def Con from 2.30413e-008 ++++++++++++++++++++++++++++to 2.30413e-008
Heightened Def Con from 2.30413e-008 +++++++++++++++++++++++++++++to 2.40413e-008
Heightened Def Con from 2.40426e-008 ++++++++++++++++++++++++++++to 2.40426e-008
Heightened Def Con from 2.40426e-008 ++++++++++++++++++++++++++++to 2.40426e-008
Heightened Def Con from 2.40426e-008 +++++++++++++++++++++++++++++to 2.50426e-008
Heightened Def Con from 2.50439e-008 ++++++++++++++++++++++++++++to 2.50439e-008
Heightened Def Con from 2.50439e-008 ++++++++++++++++++++++++++++to 2.50439e-008
Heightened Def Con from 2.50439e-008 +++++++++++++++++++++++++++++to 2.60439e-008
Heightened Def Con from 2.60452e-008 ++++++++++++++++++++++++++++to 2.60452e-008
Heightened Def Con from 2.60452e-008 ++++++++++++++++++++++++++++to 2.60452e-008
Heightened Def Con from 2.60452e-008 +++++++++++++++++++++++++++++to 2.70452e-008
Heightened Def Con from 2.70465e-008 +++++++++++++++++++++++++++to 2.70465e-008
Heightened Def Con from 2.70465e-008 +++++++++++++++++++++++++++++to 2.80465e-008
Heightened Def Con from 2.80478e-008 ++++++++++++++++++++++++++++to 2.80478e-008
Heightened Def Con from 2.80478e-008 +++++++++++++++++++++++++++++to 2.90478e-008
Heightened Def Con from 2.90491e-008 ++++++++++++++++++++++++++++to 2.90491e-008
Heightened Def Con from 2.90491e-008 +++++++++++++++++++++++++++++to 3.00491e-008
Heightened Def Con from 3.00504e-008 ++++++++++++++++++++++++++++to 3.00504e-008
Heightened Def Con from 3.00504e-008 ++++++++++++++++++++++++++++to 3.00504e-008
Heightened Def Con from 3.00504e-008 +++++++++++++++++++++++++++++to 3.10504e-008
Heightened Def Con from 3.10517e-008 +++++++++++++++++++++++++++to 3.10517e-008
Heightened Def Con from 3.10517e-008 +++++++++++++++++++++++++++++to 3.20517e-008
Heightened Def Con from 3.20531e-008 ++++++++++++++++++++++++++++to 3.20531e-008
Heightened Def Con from 3.20531e-008 ++++++++++++++++++++++++++++to 3.20531e-008
Heightened Def Con from 3.20531e-008 +++++++++++++++++++++++++++++to 3.30531e-008
Heightened Def Con from 3.30544e-008 ++++++++++++++++++++++++++to 3.30544e-008
Heightened Def Con from 3.30544e-008 +++++++++++++++++++++++++++++to 3.40544e-008
Heightened Def Con from 3.40557e-008 +++++++++++++++++++++++++++to 3.40557e-008
Heightened Def Con from 3.40557e-008 +++++++++++++++++++++++++++++to 3.50557e-008
Heightened Def Con from 3.5057e-008 +++++++++++++++++++++++++++to 3.5057e-008
Heightened Def Con from 3.5057e-008 +++++++++++++++++++++++++++++to 3.6057e-008
Heightened Def Con from 3.60583e-008 ++++++++++++++++++++++++++to 3.60583e-008
Heightened Def Con from 3.60583e-008 +++++++++++++++++++++++++++++to 3.70583e-008
Heightened Def Con from 3.70596e-008 ++++++++++++++++++++++++to 3.70596e-008
Heightened Def Con from 3.70596e-008 +++++++++++++++++++++++++++++to 3.80596e-008
Heightened Def Con from 3.80609e-008 +++++++++++++++++++++++++++++to 3.90609e-008
Heightened Def Con from 3.90623e-008 +++++++++++++++++++++++++++++to 4.00623e-008
Heightened Def Con from 4.00636e-008 +++++++++++++++++++++++++++++to 4.10636e-008
Heightened Def Con from 4.10649e-008 ++++++++++++++++++++++++++++to 4.10649e-008
Heightened Def Con from 4.10649e-008 +++++++++++++++++++++++++++++to 4.20649e-008
Heightened Def Con from 4.20662e-008 ++++++++++++++++++++++++++to 4.20662e-008
Heightened Def Con from 4.20662e-008 +++++++++++++++++++++++++++++to 4.30662e-008
Heightened Def Con from 4.30675e-008 ++++++++++++++++++++++++++++to 4.30675e-008
Heightened Def Con from 4.30675e-008 ++++++++++++++++++++++++++++to 4.30675e-008
Heightened Def Con from 4.30675e-008 +++++++++++++++++++++++++++++to 4.40675e-008
Heightened Def Con from 4.40688e-008 +++++++++++++++++++++++++++++to 4.50688e-008
Heightened Def Con from 4.50701e-008 ++++++++++++++++++++++++++++to 4.50701e-008
Heightened Def Con from 4.50701e-008 ++++++++++++++++++++++++++++to 4.50701e-008
Heightened Def Con from 4.50701e-008 +++++++++++++++++++++++++++++to 4.60701e-008
Heightened Def Con from 4.60714e-008 ++++++++++++++++++++++++++++to 4.60714e-008
Heightened Def Con from 4.60714e-008 +++++++++++++++++++++++++++++to 4.70714e-008
Heightened Def Con from 4.70727e-008 ++++++++++++++++++++++++++++to 4.70727e-008
Heightened Def Con from 4.70727e-008 ++++++++++++++++++++++++++++to 4.70727e-008
Heightened Def Con from 4.70727e-008 +++++++++++++++++++++++++++++to 4.80727e-008
Heightened Def Con from 4.8074e-008 +++++++++++++++++++++++++++to 4.8074e-008
Heightened Def Con from 4.8074e-008 +++++++++++++++++++++++++++++to 4.9074e-008
Heightened Def Con from 4.90754e-008 +++++++++++++++++++++++++++++to 5.00754e-008
Heightened Def Con from 5.00767e-008 +++++++++++++++++++++++++++++to 5.10767e-008
Heightened Def Con from 5.1078e-008 +++++++++++++++++++++++++++++to 5.2078e-008
Heightened Def Con from 5.20793e-008 ++++++++++++++++++++++++++++to 5.20793e-008
Heightened Def Con from 5.20793e-008 +++++++++++++++++++++++++++++to 5.30793e-008
Heightened Def Con from 5.30806e-008 +++++++++++++++++++++++++++to 5.30806e-008
Heightened Def Con from 5.30806e-008 +++++++++++++++++++++++++++++to 5.40806e-008
Heightened Def Con from 5.40819e-008 ++++++++++++++++++++++++++++to 5.40819e-008
Heightened Def Con from 5.40819e-008 +++++++++++++++++++++++++++++to 5.50819e-008
Heightened Def Con from 5.50832e-008 ++++++++++++++++++++++++++to 5.50832e-008
Heightened Def Con from 5.50832e-008 +++++++++++++++++++++++++++++to 5.60832e-008
Heightened Def Con from 5.60846e-008 ++++++++++++++++++++++++++++to 5.60846e-008
Heightened Def Con from 5.60846e-008 ++++++++++++++++++++++++++++to 5.60846e-008
Heightened Def Con from 5.60846e-008 +++++++++++++++++++++++++++++to 5.70846e-008
Heightened Def Con from 5.70859e-008 ++++++++++++++++++++++++++++to 5.70859e-008
Heightened Def Con from 5.70859e-008 +++++++++++++++++++++++++++++to 5.80859e-008
Heightened Def Con from 5.80872e-008 +++++++++++++++++++++++++++++to 5.90872e-008
Heightened Def Con from 5.90885e-008 +++++++++++++++++++++++++++to 5.90885e-008
Heightened Def Con from 5.90885e-008 +++++++++++++++++++++++++++++to 6.00885e-008
Heightened Def Con from 6.00898e-008 ++++++++++++++++++++++++++to 6.00898e-008
Heightened Def Con from 6.00898e-008 +++++++++++++++++++++++++++++to 6.10898e-008
Heightened Def Con from 6.10911e-008 +++++++++++++++++++++++++to 6.10911e-008
Heightened Def Con from 6.10911e-008 +++++++++++++++++++++++++++++to 6.20911e-008
Heightened Def Con from 6.20924e-008 +++++++++++++++++++++to 6.20924e-008
Heightened Def Con from 6.20924e-008 +++++++++++++++++++++++++++++to 6.30924e-008
Heightened Def Con from 6.30937e-008 +++++++++++++++++++++++++++++to 6.40937e-008
Heightened Def Con from 6.40951e-008 +++++++++++++++++++++++++++++to 6.50951e-008
Heightened Def Con from 6.50964e-008 ++++++++++++++++++++++++++++to 6.50964e-008
Heightened Def Con from 6.50964e-008 +++++++++++++++++++++++++++++to 6.60964e-008
Heightened Def Con from 6.60977e-008 +++++++++++++++++++++++++++to 6.60977e-008
Heightened Def Con from 6.60977e-008 +++++++++++++++++++++++++++++to 6.70977e-008
Heightened Def Con from 6.7099e-008 ++++++++++++++++++++++++++++to 6.7099e-008
Heightened Def Con from 6.7099e-008 +++++++++++++++++++++++++++++to 6.8099e-008
Heightened Def Con from 6.81003e-008 +++++++++++++++++++++++++++to 6.81003e-008
Heightened Def Con from 6.81003e-008 +++++++++++++++++++++++++++++to 6.91003e-008
Heightened Def Con from 6.91016e-008 ++++++++++++++++++++++++++++to 6.91016e-008
Heightened Def Con from 6.91016e-008 ++++++++++++++++++++++++++++to 6.91016e-008
Heightened Def Con from 6.91016e-008 +++++++++++++++++++++++++++++to 7.01016e-008
Heightened Def Con from 7.01029e-008 ++++++++++++++++++++++++++++to 7.01029e-008
Heightened Def Con from 7.01029e-008 +++++++++++++++++++++++++++++to 7.11029e-008
Heightened Def Con from 7.11042e-008 ++++++++++++++++++++++++++++to 7.11042e-008
Heightened Def Con from 7.11042e-008 ++++++++++++++++++++++++++++to 7.11042e-008
Heightened Def Con from 7.11042e-008 +++++++++++++++++++++++++++++to 7.21042e-008
Heightened Def Con from 7.21055e-008 ++++++++++++++++++++++++++++to 7.21055e-008
Heightened Def Con from 7.21055e-008 ++++++++++++++++++++++++++++to 7.21055e-008
Heightened Def Con from 7.21055e-008 +++++++++++++++++++++++++++++to 7.31055e-008
Heightened Def Con from 7.31068e-008 +++++++++++++++++++++++++++to 7.31068e-008
Heightened Def Con from 7.31068e-008 +++++++++++++++++++++++++++++to 7.41068e-008
Heightened Def Con from 7.41081e-008 +++++++++++++++++++++++++to 7.41081e-008
Heightened Def Con from 7.41081e-008 +++++++++++++++++++++++++++++to 7.51081e-008
Heightened Def Con from 7.51095e-008 +++++++++++++++++++++++to 7.51095e-008
Heightened Def Con from 7.51095e-008 +++++++++++++++++++++++++++++to 7.61095e-008
Heightened Def Con from 7.61108e-008 +++++++++++++++++++++++++++++to 7.71108e-008
Heightened Def Con from 7.71121e-008 +++++++++++++++++++++++++++++to 7.81121e-008
Heightened Def Con from 7.81134e-008 ++++++++++++++++++++++++++++to 7.81134e-008
Heightened Def Con from 7.81134e-008 +++++++++++++++++++++++++++++to 7.91134e-008
Heightened Def Con from 7.91147e-008 ++++++++++++++++++++++++to 7.91147e-008
Heightened Def Con from 7.91147e-008 +++++++++++++++++++++++++++++to 8.01147e-008
Heightened Def Con from 8.0116e-008 ++++++++++++++++++++++++++++to 8.0116e-008
Heightened Def Con from 8.0116e-008 +++++++++++++++++++++++++++++to 8.1116e-008
Heightened Def Con from 8.11173e-008 +++++++++++++++++++++++++++++to 8.21173e-008
Heightened Def Con from 8.21186e-008 ++++++++++++++++++++++++++++to 8.21186e-008
Heightened Def Con from 8.21186e-008 ++++++++++++++++++++++++++++to 8.21186e-008
Heightened Def Con from 8.21186e-008 +++++++++++++++++++++++++++++to 8.31186e-008
Heightened Def Con from 8.31199e-008 ++++++++++++++++++++++++++++to 8.31199e-008
Heightened Def Con from 8.31199e-008 ++++++++++++++++++++++++++++to 8.31199e-008
Heightened Def Con from 8.31199e-008 +++++++++++++++++++++++++++++to 8.41199e-008
Heightened Def Con from 8.41212e-008 +++++++++++++++++++++++++++to 8.41212e-008
Heightened Def Con from 8.41212e-008 +++++++++++++++++++++++++++++to 8.51212e-008
Heightened Def Con from 8.51226e-008 +++++++++++++++++++++++++++to 8.51226e-008
Heightened Def Con from 8.51226e-008 +++++++++++++++++++++++++++++to 8.61226e-008
Heightened Def Con from 8.61239e-008 ++++++++++++++++++++++++++to 8.61239e-008
Heightened Def Con from 8.61239e-008 +++++++++++++++++++++++++++++to 8.71239e-008
Heightened Def Con from 8.71252e-008 +++++++++++++++++++++++++to 8.71252e-008
Heightened Def Con from 8.71252e-008 +++++++++++++++++++++++++++++to 8.81252e-008
Heightened Def Con from 8.81265e-008 +++++++++++++++++++++++to 8.81265e-008
Heightened Def Con from 8.81265e-008 +++++++++++++++++++++++++++++to 8.91265e-008
Heightened Def Con from 8.91278e-008 +++++++++++++++++++++++++++++to 9.01278e-008
Heightened Def Con from 9.01292e-008 +++++++++++++++++++++++++++++to 9.11292e-008
Heightened Def Con from 9.11305e-008 ++++++++++++++++++++++++++++to 9.11305e-008
Heightened Def Con from 9.11305e-008 +++++++++++++++++++++++++++++to 9.21305e-008
Heightened Def Con from 9.21318e-008 ++++++++++++++++++++++++++++to 9.21318e-008
Heightened Def Con from 9.21318e-008 ++++++++++++++++++++++++++++to 9.21318e-008
Heightened Def Con from 9.21318e-008 +++++++++++++++++++++++++++++to 9.31318e-008
Heightened Def Con from 9.31331e-008 ++++++++++++++++++++++++++++to 9.31331e-008
Heightened Def Con from 9.31331e-008 ++++++++++++++++++++++++++++to 9.31331e-008
Heightened Def Con from 9.31331e-008 +++++++++++++++++++++++++++++to 9.41331e-008
Heightened Def Con from 9.41344e-008 ++++++++++++++++++++++++++++to 9.41344e-008
Heightened Def Con from 9.41344e-008 ++++++++++++++++++++++++++++to 9.41344e-008
Heightened Def Con from 9.41344e-008 +++++++++++++++++++++++++++++to 9.51344e-008
Heightened Def Con from 9.51357e-008 +++++++++++++++++++++++++++to 9.51357e-008
Heightened Def Con from 9.51357e-008 +++++++++++++++++++++++++++++to 9.61357e-008
Heightened Def Con from 9.6137e-008 ++++++++++++++++++++++++++++to 9.6137e-008
Heightened Def Con from 9.6137e-008 ++++++++++++++++++++++++++++to 9.6137e-008
Heightened Def Con from 9.6137e-008 +++++++++++++++++++++++++++++to 9.7137e-008
Heightened Def Con from 9.71383e-008 +++++++++++++++++++++++++++++to 9.81383e-008
Heightened Def Con from 9.81396e-008 +++++++++++++++++++++++++++++to 9.91396e-008
Heightened Def Con from 9.91409e-008 +++++++++++++++++++++++++++++to 1.00141e-007
Heightened Def Con from 1.00142e-007 +++++++++++++++++++++++++++++to 1.01142e-007
Heightened Def Con from 1.01144e-007 ++++++++++++++++++++++++++++to 1.01144e-007
Heightened Def Con from 1.01144e-007 +++++++++++++++++++++++++++++to 1.02144e-007
Heightened Def Con from 1.02145e-007 +++++++++++++++++++++++++++++to 1.03145e-007
Heightened Def Con from 1.03146e-007 ++++++++++++++++++++++++++++to 1.03146e-007
Heightened Def Con from 1.03146e-007 +++++++++++++++++++++++++++++to 1.04146e-007
Heightened Def Con from 1.04147e-007 ++++++++++++++++++++++++++++to 1.04147e-007
Heightened Def Con from 1.04147e-007 +++++++++++++++++++++++++++++to 1.05147e-007
Heightened Def Con from 1.05149e-007 ++++++++++++++++++++++++++++to 1.05149e-007
Heightened Def Con from 1.05149e-007 +++++++++++++++++++++++++++++to 1.06149e-007
Heightened Def Con from 1.0615e-007 ++++++++++++++++++++++++++++to 1.0615e-007
Heightened Def Con from 1.0615e-007 ++++++++++++++++++++++++++++to 1.0615e-007
Heightened Def Con from 1.0615e-007 +++++++++++++++++++++++++++++to 1.0715e-007
Heightened Def Con from 1.07151e-007 +++++++++++++++++++++++++++to 1.07151e-007
Heightened Def Con from 1.07151e-007 +++++++++++++++++++++++++++++to 1.08151e-007
Heightened Def Con from 1.08153e-007 +++++++++++++++++++++++++++to 1.08153e-007
Heightened Def Con from 1.08153e-007 +++++++++++++++++++++++++++++to 1.09153e-007
Heightened Def Con from 1.09154e-007 ++++++++++++++++++++++++++to 1.09154e-007
Heightened Def Con from 1.09154e-007 +++++++++++++++++++++++++++++to 1.10154e-007
Heightened Def Con from 1.10155e-007 +++++++++++++++++++++++++to 1.10155e-007
Heightened Def Con from 1.10155e-007 +++++++++++++++++++++++++++++to 1.11155e-007
Heightened Def Con from 1.11157e-007 +++++++++++++++++++++++++++++to 1.12157e-007
Heightened Def Con from 1.12158e-007 +++++++++++++++++++++++++++++to 1.13158e-007
Heightened Def Con from 1.13159e-007 +++++++++++++++++++++++++++++to 1.14159e-007
Heightened Def Con from 1.14161e-007 ++++++++++++++++++++++++++++to 1.14161e-007
Heightened Def Con from 1.14161e-007 +++++++++++++++++++++++++++++to 1.15161e-007
Heightened Def Con from 1.15162e-007 +++++++++++++++++++++++++++++to 1.16162e-007
Heightened Def Con from 1.16163e-007 ++++++++++++++++++++++++++++to 1.16163e-007
Heightened Def Con from 1.16163e-007 +++++++++++++++++++++++++++++to 1.17163e-007
Heightened Def Con from 1.17165e-007 ++++++++++++++++++++++++++++to 1.17165e-007
Heightened Def Con from 1.17165e-007 +++++++++++++++++++++++++++++to 1.18165e-007
Heightened Def Con from 1.18166e-007 +++++++++++++++++++++++++++to 1.18166e-007
Heightened Def Con from 1.18166e-007 +++++++++++++++++++++++++++++to 1.19166e-007
Heightened Def Con from 1.19167e-007 +++++++++++++++++++++++++++to 1.19167e-007
Heightened Def Con from 1.19167e-007 +++++++++++++++++++++++++++++to 1.20167e-007
Heightened Def Con from 1.20168e-007 +++++++++++++++++++++++++++to 1.20168e-007
Heightened Def Con from 1.20168e-007 +++++++++++++++++++++++++++++to 1.21168e-007
Heightened Def Con from 1.2117e-007 +++++++++++++++++++++++++++to 1.2117e-007
Heightened Def Con from 1.2117e-007 +++++++++++++++++++++++++++++to 1.2217e-007
Heightened Def Con from 1.22171e-007 ++++++++++++++++++++++++++to 1.22171e-007
Heightened Def Con from 1.22171e-007 +++++++++++++++++++++++++++++to 1.23171e-007
Heightened Def Con from 1.23172e-007 +++++++++++++++++++++++++to 1.23172e-007
Heightened Def Con from 1.23172e-007 +++++++++++++++++++++++++++++to 1.24172e-007
Heightened Def Con from 1.24174e-007 ++++++++++++++++to 1.24174e-007
Heightened Def Con from 1.24174e-007 +++++++++++++++++++++++++++++to 1.25174e-007
Heightened Def Con from 1.25175e-007 +++++++++++++++++++++++++++++to 1.26175e-007
Heightened Def Con from 1.26176e-007 +++++++++++++++++++++++++++++to 1.27176e-007
Heightened Def Con from 1.27178e-007 ++++++++++++++++++++++++++++to 1.27178e-007
Heightened Def Con from 1.27178e-007 +++++++++++++++++++++++++++++to 1.28178e-007
Heightened Def Con from 1.28179e-007 ++++++++++++++++++++++++++++to 1.28179e-007
Heightened Def Con from 1.28179e-007 +++++++++++++++++++++++++++++to 1.29179e-007
Heightened Def Con from 1.2918e-007 ++++++++++++++++++++++++++++to 1.2918e-007
Heightened Def Con from 1.2918e-007 +++++++++++++++++++++++++++++to 1.3018e-007
Heightened Def Con from 1.30182e-007 +++++++++++++++++++++++++++to 1.30182e-007
Heightened Def Con from 1.30182e-007 +++++++++++++++++++++++++++++to 1.31182e-007
Heightened Def Con from 1.31183e-007 ++++++++++++++++++++++++++++to 1.31183e-007
Heightened Def Con from 1.31183e-007 ++++++++++++++++++++++++++++to 1.31183e-007
Heightened Def Con from 1.31183e-007 +++++++++++++++++++++++++++++to 1.32183e-007
Heightened Def Con from 1.32184e-007 ++++++++++++++++++++++++++++to 1.32184e-007
Heightened Def Con from 1.32184e-007 +++++++++++++++++++++++++++++to 1.33184e-007
Heightened Def Con from 1.33186e-007 ++++++++++++++++++++++++++++to 1.33186e-007
Heightened Def Con from 1.33186e-007 ++++++++++++++++++++++++++++to 1.33186e-007
Heightened Def Con from 1.33186e-007 +++++++++++++++++++++++++++++to 1.34186e-007
Heightened Def Con from 1.34187e-007 ++++++++++++++++++++++++++++to 1.34187e-007
Heightened Def Con from 1.34187e-007 ++++++++++++++++++++++++++++to 1.34187e-007
Heightened Def Con from 1.34187e-007 +++++++++++++++++++++++++++++to 1.35187e-007
Heightened Def Con from 1.35188e-007 +++++++++++++++++++++++++++to 1.35188e-007
Heightened Def Con from 1.35188e-007 +++++++++++++++++++++++++++++to 1.36188e-007
Heightened Def Con from 1.36189e-007 +++++++++++++++++++++++++to 1.36189e-007
Heightened Def Con from 1.36189e-007 +++++++++++++++++++++++++++++to 1.37189e-007
Heightened Def Con from 1.37191e-007 ++++++++++++++++++++++to 1.37191e-007
Heightened Def Con from 1.37191e-007 +++++++++++++++++++++++++++++to 1.38191e-007
Heightened Def Con from 1.38192e-007 +++++++++++++++++++++++++++++to 1.39192e-007
Heightened Def Con from 1.39193e-007 +++++++++++++++++++++++++++++to 1.40193e-007
Heightened Def Con from 1.40195e-007 ++++++++++++++++++++++++++++to 1.40195e-007
Heightened Def Con from 1.40195e-007 +++++++++++++++++++++++++++++to 1.41195e-007
Heightened Def Con from 1.41196e-007 +++++++++++++++++++++++++++to 1.41196e-007
Heightened Def Con from 1.41196e-007 +++++++++++++++++++++++++++++to 1.42196e-007
Heightened Def Con from 1.42197e-007 ++++++++++++++++++++++++++++to 1.42197e-007
Heightened Def Con from 1.42197e-007 +++++++++++++++++++++++++++++to 1.43197e-007
Heightened Def Con from 1.43199e-007 ++++++++++++++++++++++++to 1.43199e-007
Heightened Def Con from 1.43199e-007 +++++++++++++++++++++++++++++to 1.44199e-007
Heightened Def Con from 1.442e-007 ++++++++++++++++++++++++++++to 1.442e-007
Heightened Def Con from 1.442e-007 ++++++++++++++++++++++++++++to 1.442e-007
Heightened Def Con from 1.442e-007 +++++++++++++++++++++++++++++to 1.452e-007
Heightened Def Con from 1.45201e-007 ++++++++++++++++++++++++++++to 1.45201e-007
Heightened Def Con from 1.45201e-007 ++++++++++++++++++++++++++++to 1.45201e-007
Heightened Def Con from 1.45201e-007 +++++++++++++++++++++++++++++to 1.46201e-007
Heightened Def Con from 1.46203e-007 +++++++++++++++++++++++++++to 1.46203e-007
Heightened Def Con from 1.46203e-007 +++++++++++++++++++++++++++++to 1.47203e-007
Heightened Def Con from 1.47204e-007 +++++++++++++++++++++++++++to 1.47204e-007
Heightened Def Con from 1.47204e-007 +++++++++++++++++++++++++++++to 1.48204e-007
Heightened Def Con from 1.48205e-007 ++++++++++++++++++++++++++to 1.48205e-007
Heightened Def Con from 1.48205e-007 +++++++++++++++++++++++++++++to 1.49205e-007
Heightened Def Con from 1.49207e-007 +++++++++++++++++++++++++to 1.49207e-007
Heightened Def Con from 1.49207e-007 +++++++++++++++++++++++++++++to 1.50207e-007
Heightened Def Con from 1.50208e-007 +++++++++++++++++++++++to 1.50208e-007
Heightened Def Con from 1.50208e-007 +++++++++++++++++++++++++++++to 1.51208e-007
Heightened Def Con from 1.51209e-007 +++++++++++++++++++++++++++++to 1.52209e-007
Heightened Def Con from 1.5221e-007 +++++++++++++++++++++++++++++to 1.5321e-007
Heightened Def Con from 1.53212e-007 ++++++++++++++++++++++++++++to 1.53212e-007
Heightened Def Con from 1.53212e-007 +++++++++++++++++++++++++++++to 1.54212e-007
Heightened Def Con from 1.54213e-007 +++++++++++++++++++++++++++to 1.54213e-007
Heightened Def Con from 1.54213e-007 +++++++++++++++++++++++++++++to 1.55213e-007
Heightened Def Con from 1.55214e-007 ++++++++++++++++++++++++++++to 1.55214e-007
Heightened Def Con from 1.55214e-007 +++++++++++++++++++++++++++++to 1.56214e-007
Heightened Def Con from 1.56216e-007 +++++++++++++++++++++++++to 1.56216e-007
Heightened Def Con from 1.56216e-007 +++++++++++++++++++++++++++++to 1.57216e-007
Heightened Def Con from 1.57217e-007 ++++++++++++++++++++++++++++to 1.57217e-007
Heightened Def Con from 1.57217e-007 ++++++++++++++++++++++++++++to 1.57217e-007
Heightened Def Con from 1.57217e-007 +++++++++++++++++++++++++++++to 1.58217e-007
Heightened Def Con from 1.58218e-007 ++++++++++++++++++++++++++++to 1.58218e-007
Heightened Def Con from 1.58218e-007 +++++++++++++++++++++++++++++to 1.59218e-007
Heightened Def Con from 1.5922e-007 ++++++++++++++++++++++++++++to 1.5922e-007
Heightened Def Con from 1.5922e-007 ++++++++++++++++++++++++++++to 1.5922e-007
Heightened Def Con from 1.5922e-007 +++++++++++++++++++++++++++++to 1.6022e-007
Heightened Def Con from 1.60221e-007 +++++++++++++++++++++++++++to 1.60221e-007
Heightened Def Con from 1.60221e-007 +++++++++++++++++++++++++++++to 1.61221e-007
Heightened Def Con from 1.61222e-007 ++++++++++++++++++++++++++to 1.61222e-007
Heightened Def Con from 1.61222e-007 +++++++++++++++++++++++++++++to 1.62222e-007
Heightened Def Con from 1.62224e-007 ++++++++++++++++++++++++++to 1.62224e-007
Heightened Def Con from 1.62224e-007 +++++++++++++++++++++++++++++to 1.63224e-007
Heightened Def Con from 1.63225e-007 ++++++++++++++++++++++++to 1.63225e-007
Heightened Def Con from 1.63225e-007 +++++++++++++++++++++++++++++to 1.64225e-007
Heightened Def Con from 1.64226e-007 +++++++++++++++++++++++++++++to 1.65226e-007
Heightened Def Con from 1.65227e-007 +++++++++++++++++++++++++++++to 1.66227e-007
Heightened Def Con from 1.66229e-007 ++++++++++++++++++++++++++++to 1.66229e-007
Heightened Def Con from 1.66229e-007 +++++++++++++++++++++++++++++to 1.67229e-007
Heightened Def Con from 1.6723e-007 +++++++++++++++++++++++++++++to 1.6823e-007
Heightened Def Con from 1.68231e-007 ++++++++++++++++++++++++++++to 1.68231e-007
Heightened Def Con from 1.68231e-007 +++++++++++++++++++++++++++++to 1.69231e-007
Heightened Def Con from 1.69233e-007 ++++++++++++++++++++++++++++to 1.69233e-007
Heightened Def Con from 1.69233e-007 +++++++++++++++++++++++++++++to 1.70233e-007
Heightened Def Con from 1.70234e-007 ++++++++++++++++++++++++++++to 1.70234e-007
Heightened Def Con from 1.70234e-007 ++++++++++++++++++++++++++++to 1.70234e-007
Heightened Def Con from 1.70234e-007 +++++++++++++++++++++++++++++to 1.71234e-007
Heightened Def Con from 1.71235e-007 ++++++++++++++++++++++++++++to 1.71235e-007
Heightened Def Con from 1.71235e-007 ++++++++++++++++++++++++++++to 1.71235e-007
Heightened Def Con from 1.71235e-007 +++++++++++++++++++++++++++++to 1.72235e-007
Heightened Def Con from 1.72237e-007 +++++++++++++++++++++++++++to 1.72237e-007
Heightened Def Con from 1.72237e-007 +++++++++++++++++++++++++++++to 1.73237e-007
Heightened Def Con from 1.73238e-007 +++++++++++++++++++++++++++to 1.73238e-007
Heightened Def Con from 1.73238e-007 +++++++++++++++++++++++++++++to 1.74238e-007
Heightened Def Con from 1.74239e-007 ++++++++++++++++++++++++++to 1.74239e-007
Heightened Def Con from 1.74239e-007 +++++++++++++++++++++++++++++to 1.75239e-007
Heightened Def Con from 1.75241e-007 ++++++++++++++++++++++++++to 1.75241e-007
Heightened Def Con from 1.75241e-007 +++++++++++++++++++++++++++++to 1.76241e-007
Heightened Def Con from 1.76242e-007 ++++++++++++++++++++++++to 1.76242e-007
Heightened Def Con from 1.76242e-007 +++++++++++++++++++++++++++++to 1.77242e-007
Heightened Def Con from 1.77243e-007 +++++++++++++++++++++++++++++to 1.78243e-007
Heightened Def Con from 1.78245e-007 +++++++++++++++++++++++++++++to 1.79245e-007
Heightened Def Con from 1.79246e-007 +++++++++++++++++++++++++++++to 1.80246e-007
Heightened Def Con from 1.80247e-007 ++++++++++++++++++++++++++++to 1.80247e-007
Heightened Def Con from 1.80247e-007 +++++++++++++++++++++++++++++to 1.81247e-007
Heightened Def Con from 1.81248e-007 ++++++++++++++++++++++++++to 1.81248e-007
Heightened Def Con from 1.81248e-007 +++++++++++++++++++++++++++++to 1.82248e-007
Heightened Def Con from 1.8225e-007 ++++++++++++++++++++++++++++to 1.8225e-007
Heightened Def Con from 1.8225e-007 ++++++++++++++++++++++++++++to 1.8225e-007
Heightened Def Con from 1.8225e-007 +++++++++++++++++++++++++++++to 1.8325e-007
Heightened Def Con from 1.83251e-007 +++++++++++++++++++++++++++++to 1.84251e-007
Heightened Def Con from 1.84252e-007 ++++++++++++++++++++++++++++to 1.84252e-007
Heightened Def Con from 1.84252e-007 ++++++++++++++++++++++++++++to 1.84252e-007
Heightened Def Con from 1.84252e-007 +++++++++++++++++++++++++++++to 1.85252e-007
Heightened Def Con from 1.85254e-007 +++++++++++++++++++++++++++++to 1.86254e-007
Heightened Def Con from 1.86255e-007 +++++++++++++++++++++++++++to 1.86255e-007
Heightened Def Con from 1.86255e-007 +++++++++++++++++++++++++++++to 1.87255e-007
Heightened Def Con from 1.87256e-007 ++++++++++++++++++++++++++to 1.87256e-007
Heightened Def Con from 1.87256e-007 +++++++++++++++++++++++++++++to 1.88256e-007
Heightened Def Con from 1.88258e-007 ++++++++++++++++++++++++++to 1.88258e-007
Heightened Def Con from 1.88258e-007 +++++++++++++++++++++++++++++to 1.89258e-007
Heightened Def Con from 1.89259e-007 ++++++++++++++++++++++++to 1.89259e-007
Heightened Def Con from 1.89259e-007 +++++++++++++++++++++++++++++to 1.90259e-007
Heightened Def Con from 1.9026e-007 +++++++++++++++++++++++++++++to 1.9126e-007
Heightened Def Con from 1.91262e-007 +++++++++++++++++++++++++++++to 1.92262e-007
Heightened Def Con from 1.92263e-007 +++++++++++++++++++++++++++++to 1.93263e-007
Heightened Def Con from 1.93264e-007 ++++++++++++++++++++++++++++to 1.93264e-007
Heightened Def Con from 1.93264e-007 +++++++++++++++++++++++++++++to 1.94264e-007
Heightened Def Con from 1.94266e-007 +++++++++++++++++++++++++to 1.94266e-007
Heightened Def Con from 1.94266e-007 +++++++++++++++++++++++++++++to 1.95266e-007
Heightened Def Con from 1.95267e-007 ++++++++++++++++++++++++++++to 1.95267e-007
Heightened Def Con from 1.95267e-007 ++++++++++++++++++++++++++++to 1.95267e-007
Heightened Def Con from 1.95267e-007 +++++++++++++++++++++++++++++to 1.96267e-007
Heightened Def Con from 1.96268e-007 ++++++++++++++++++++++++++++to 1.96268e-007
Heightened Def Con from 1.96268e-007 +++++++++++++++++++++++++++++to 1.97268e-007
Heightened Def Con from 1.97269e-007 ++++++++++++++++++++++++++++to 1.97269e-007
Heightened Def Con from 1.97269e-007 +++++++++++++++++++++++++++++to 1.98269e-007
Heightened Def Con from 1.98271e-007 +++++++++++++++++++++++++++++to 1.99271e-007
Heightened Def Con from 1.99272e-007 ++++++++++++++++++++++++++++to 1.99272e-007
Heightened Def Con from 1.99272e-007 +++++++++++++++++++++++++++++to 2.00272e-007
Heightened Def Con from 2.00273e-007 +++++++++++++++++++++++++++to 2.00273e-007
Heightened Def Con from 2.00273e-007 +++++++++++++++++++++++++++++to 2.01273e-007
Heightened Def Con from 2.01275e-007 ++++++++++++++++++++++++++++to 2.01275e-007
Heightened Def Con from 2.01275e-007 ++++++++++++++++++++++++++++to 2.01275e-007
Heightened Def Con from 2.01275e-007 +++++++++++++++++++++++++++++to 2.02275e-007
Heightened Def Con from 2.02276e-007 +++++++++++++++++++++++++++++to 2.03276e-007
Heightened Def Con from 2.03277e-007 ++++++++++++++++++++++++++++to 2.03277e-007
Heightened Def Con from 2.03277e-007 ++++++++++++++++++++++++++++to 2.03277e-007
Heightened Def Con from 2.03277e-007 +++++++++++++++++++++++++++++to 2.04277e-007
Heightened Def Con from 2.04279e-007 +++++++++++++++++++++++++++++to 2.05279e-007
Heightened Def Con from 2.0528e-007 +++++++++++++++++++++++++++to 2.0528e-007
Heightened Def Con from 2.0528e-007 +++++++++++++++++++++++++++++to 2.0628e-007
Heightened Def Con from 2.06281e-007 +++++++++++++++++++++++++++to 2.06281e-007
Heightened Def Con from 2.06281e-007 +++++++++++++++++++++++++++++to 2.07281e-007
Heightened Def Con from 2.07283e-007 ++++++++++++++++++++++++++to 2.07283e-007
Heightened Def Con from 2.07283e-007 +++++++++++++++++++++++++++++to 2.08283e-007
Heightened Def Con from 2.08284e-007 ++++++++++++++++++++++++to 2.08284e-007
Heightened Def Con from 2.08284e-007 +++++++++++++++++++++++++++++to 2.09284e-007
Heightened Def Con from 2.09285e-007 +++++++++++++++++++++++++++++to 2.10285e-007
Heightened Def Con from 2.10287e-007 +++++++++++++++++++++++++++++to 2.11287e-007
Heightened Def Con from 2.11288e-007 +++++++++++++++++++++++++++++to 2.12288e-007
Heightened Def Con from 2.12289e-007 ++++++++++++++++++++++++++++to 2.12289e-007
Heightened Def Con from 2.12289e-007 +++++++++++++++++++++++++++++to 2.13289e-007
Heightened Def Con from 2.1329e-007 +++++++++++++++++++++++++to 2.1329e-007
Heightened Def Con from 2.1329e-007 +++++++++++++++++++++++++++++to 2.1429e-007
Heightened Def Con from 2.14292e-007 ++++++++++++++++++++++++++++to 2.14292e-007
Heightened Def Con from 2.14292e-007 ++++++++++++++++++++++++++++to 2.14292e-007
Heightened Def Con from 2.14292e-007 +++++++++++++++++++++++++++++to 2.15292e-007
Heightened Def Con from 2.15293e-007 ++++++++++++++++++++++++++++to 2.15293e-007
Heightened Def Con from 2.15293e-007 +++++++++++++++++++++++++++++to 2.16293e-007
Heightened Def Con from 2.16294e-007 ++++++++++++++++++++++++++++to 2.16294e-007
Heightened Def Con from 2.16294e-007 +++++++++++++++++++++++++++++to 2.17294e-007
Heightened Def Con from 2.17296e-007 ++++++++++++++++++++++++++++to 2.17296e-007
Heightened Def Con from 2.17296e-007 ++++++++++++++++++++++++++++to 2.17296e-007
Heightened Def Con from 2.17296e-007 +++++++++++++++++++++++++++++to 2.18296e-007
Heightened Def Con from 2.18297e-007 +++++++++++++++++++++++++++to 2.18297e-007
Heightened Def Con from 2.18297e-007 +++++++++++++++++++++++++++++to 2.19297e-007
Heightened Def Con from 2.19298e-007 +++++++++++++++++++++++++++to 2.19298e-007
Heightened Def Con from 2.19298e-007 +++++++++++++++++++++++++++++to 2.20298e-007
Heightened Def Con from 2.203e-007 +++++++++++++++++++++++++++++to 2.213e-007
Heightened Def Con from 2.21301e-007 +++++++++++++++++++++++++++++to 2.22301e-007
Heightened Def Con from 2.22302e-007 +++++++++++++++++++++++++++++to 2.23302e-007
Heightened Def Con from 2.23304e-007 ++++++++++++++++++++++++++++to 2.23304e-007
Heightened Def Con from 2.23304e-007 +++++++++++++++++++++++++++++to 2.24304e-007
Heightened Def Con from 2.24305e-007 +++++++++++++++++++++++++++++to 2.25305e-007
Heightened Def Con from 2.25306e-007 ++++++++++++++++++++++++++++to 2.25306e-007
Heightened Def Con from 2.25306e-007 +++++++++++++++++++++++++++++to 2.26306e-007
Heightened Def Con from 2.26308e-007 ++++++++++++++++++++++++++++to 2.26308e-007
Heightened Def Con from 2.26308e-007 +++++++++++++++++++++++++++++to 2.27308e-007
Heightened Def Con from 2.27309e-007 ++++++++++++++++++++++++++++to 2.27309e-007
Heightened Def Con from 2.27309e-007 ++++++++++++++++++++++++++++to 2.27309e-007
Heightened Def Con from 2.27309e-007 +++++++++++++++++++++++++++++to 2.28309e-007
Heightened Def Con from 2.2831e-007 +++++++++++++++++++++++++++to 2.2831e-007
Heightened Def Con from 2.2831e-007 +++++++++++++++++++++++++++++to 2.2931e-007
Heightened Def Con from 2.29311e-007 +++++++++++++++++++++++++++to 2.29311e-007
Heightened Def Con from 2.29311e-007 +++++++++++++++++++++++++++++to 2.30311e-007
Heightened Def Con from 2.30313e-007 +++++++++++++++++++++++++++to 2.30313e-007
Heightened Def Con from 2.30313e-007 +++++++++++++++++++++++++++++to 2.31313e-007
Heightened Def Con from 2.31314e-007 ++++++++++++++++++++++++++to 2.31314e-007
Heightened Def Con from 2.31314e-007 +++++++++++++++++++++++++++++to 2.32314e-007
Heightened Def Con from 2.32315e-007 +++++++++++++++++++++++++to 2.32315e-007
Heightened Def Con from 2.32315e-007 +++++++++++++++++++++++++++++to 2.33315e-007
Heightened Def Con from 2.33317e-007 ++++++++++++++++++++++to 2.33317e-007
Heightened Def Con from 2.33317e-007 +++++++++++++++++++++++++++++to 2.34317e-007
Heightened Def Con from 2.34318e-007 +++++++++++++++++++++++++++++to 2.35318e-007
Heightened Def Con from 2.35319e-007 +++++++++++++++++++++++++++++to 2.36319e-007
Heightened Def Con from 2.36321e-007 ++++++++++++++++++++++++++++to 2.36321e-007
Heightened Def Con from 2.36321e-007 +++++++++++++++++++++++++++++to 2.37321e-007
Heightened Def Con from 2.37322e-007 ++++++++++++++++++++++++++++to 2.37322e-007
Heightened Def Con from 2.37322e-007 +++++++++++++++++++++++++++++to 2.38322e-007
Heightened Def Con from 2.38323e-007 ++++++++++++++++++++++++++++to 2.38323e-007
Heightened Def Con from 2.38323e-007 +++++++++++++++++++++++++++++to 2.39323e-007
Heightened Def Con from 2.39325e-007 ++++++++++++++++++++++++++++to 2.39325e-007
Heightened Def Con from 2.39325e-007 ++++++++++++++++++++++++++++to 2.39325e-007
Heightened Def Con from 2.39325e-007 +++++++++++++++++++++++++++++to 2.40325e-007
Heightened Def Con from 2.40326e-007 +++++++++++++++++++++++++++to 2.40326e-007
Heightened Def Con from 2.40326e-007 +++++++++++++++++++++++++++++to 2.41326e-007
Heightened Def Con from 2.41327e-007 +++++++++++++++++++++++++++to 2.41327e-007
Heightened Def Con from 2.41327e-007 +++++++++++++++++++++++++++++to 2.42327e-007
Heightened Def Con from 2.42328e-007 +++++++++++++++++++++++++++to 2.42328e-007
Heightened Def Con from 2.42328e-007 +++++++++++++++++++++++++++++to 2.43328e-007
Heightened Def Con from 2.4333e-007 +++++++++++++++++++++++++++to 2.4333e-007
Heightened Def Con from 2.4333e-007 +++++++++++++++++++++++++++++to 2.4433e-007
Heightened Def Con from 2.44331e-007 ++++++++++++++++++++++++++to 2.44331e-007
Heightened Def Con from 2.44331e-007 +++++++++++++++++++++++++++++to 2.45331e-007
Heightened Def Con from 2.45332e-007 +++++++++++++++++++++++++to 2.45332e-007
Heightened Def Con from 2.45332e-007 +++++++++++++++++++++++++++++to 2.46332e-007
Heightened Def Con from 2.46334e-007 +++++++++++++++++++++++to 2.46334e-007
Heightened Def Con from 2.46334e-007 +++++++++++++++++++++++++++++to 2.47334e-007
Heightened Def Con from 2.47335e-007 +++++++++++++++++++++++++++++to 2.48335e-007
Heightened Def Con from 2.48336e-007 +++++++++++++++++++++++++++++to 2.49336e-007
Heightened Def Con from 2.49338e-007 ++++++++++++++++++++++++++++to 2.49338e-007
Heightened Def Con from 2.49338e-007 +++++++++++++++++++++++++++++to 2.50338e-007
Heightened Def Con from 2.50339e-007 ++++++++++++++++++++++++++++to 2.50339e-007
Heightened Def Con from 2.50339e-007 +++++++++++++++++++++++++++++to 2.51339e-007
Heightened Def Con from 2.5134e-007 ++++++++++++++++++++++++++++to 2.5134e-007
Heightened Def Con from 2.5134e-007 +++++++++++++++++++++++++++++to 2.5234e-007
Heightened Def Con from 2.52342e-007 ++++++++++++++++++++++++++++to 2.52342e-007
Heightened Def Con from 2.52342e-007 ++++++++++++++++++++++++++++to 2.52342e-007
Heightened Def Con from 2.52342e-007 +++++++++++++++++++++++++++++to 2.53342e-007
Heightened Def Con from 2.53343e-007 +++++++++++++++++++++++++++to 2.53343e-007
Heightened Def Con from 2.53343e-007 +++++++++++++++++++++++++++++to 2.54343e-007
Heightened Def Con from 2.54344e-007 ++++++++++++++++++++++++++++to 2.54344e-007
Heightened Def Con from 2.54344e-007 ++++++++++++++++++++++++++++to 2.54344e-007
Heightened Def Con from 2.54344e-007 +++++++++++++++++++++++++++++to 2.55344e-007
Heightened Def Con from 2.55346e-007 +++++++++++++++++++++++++to 2.55346e-007
Heightened Def Con from 2.55346e-007 +++++++++++++++++++++++++++++to 2.56346e-007
Heightened Def Con from 2.56347e-007 +++++++++++++++++++++++++++to 2.56347e-007
Heightened Def Con from 2.56347e-007 +++++++++++++++++++++++++++++to 2.57347e-007
Heightened Def Con from 2.57348e-007 ++++++++++++++++++++++++++to 2.57348e-007
Heightened Def Con from 2.57348e-007 +++++++++++++++++++++++++++++to 2.58348e-007
Heightened Def Con from 2.58349e-007 ++++++++++++++++++++++++++to 2.58349e-007
Heightened Def Con from 2.58349e-007 +++++++++++++++++++++++++++++to 2.59349e-007
Heightened Def Con from 2.59351e-007 +++++++++++++++++++++++to 2.59351e-007
Heightened Def Con from 2.59351e-007 +++++++++++++++++++++++++++++to 2.60351e-007
Heightened Def Con from 2.60352e-007 +++++++++++++++++++++++++++++to 2.61352e-007
Heightened Def Con from 2.61353e-007 +++++++++++++++++++++++++++++to 2.62353e-007
Heightened Def Con from 2.62355e-007 ++++++++++++++++++++++++++++to 2.62355e-007
Heightened Def Con from 2.62355e-007 +++++++++++++++++++++++++++++to 2.63355e-007
Heightened Def Con from 2.63356e-007 ++++++++++++++++++++++++++++to 2.63356e-007
Heightened Def Con from 2.63356e-007 ++++++++++++++++++++++++++++to 2.63356e-007
Heightened Def Con from 2.63356e-007 +++++++++++++++++++++++++++++to 2.64356e-007
Heightened Def Con from 2.64357e-007 ++++++++++++++++++++++++++++to 2.64357e-007
Heightened Def Con from 2.64357e-007 ++++++++++++++++++++++++++++to 2.64357e-007
Heightened Def Con from 2.64357e-007 +++++++++++++++++++++++++++++to 2.65357e-007
Heightened Def Con from 2.65359e-007 +++++++++++++++++++++++++++to 2.65359e-007
Heightened Def Con from 2.65359e-007 +++++++++++++++++++++++++++++to 2.66359e-007
Heightened Def Con from 2.6636e-007 ++++++++++++++++++++++++++++to 2.6636e-007
Heightened Def Con from 2.6636e-007 ++++++++++++++++++++++++++++to 2.6636e-007
Heightened Def Con from 2.6636e-007 +++++++++++++++++++++++++++++to 2.6736e-007
Heightened Def Con from 2.67361e-007 +++++++++++++++++++++++++++++to 2.68361e-007
Heightened Def Con from 2.68363e-007 +++++++++++++++++++++++++++to 2.68363e-007
Heightened Def Con from 2.68363e-007 +++++++++++++++++++++++++++++to 2.69363e-007
Heightened Def Con from 2.69364e-007 +++++++++++++++++++++++++++++to 2.70364e-007
Heightened Def Con from 2.70365e-007 +++++++++++++++++++++++++++++to 2.71365e-007
Heightened Def Con from 2.71367e-007 +++++++++++++++++++++++++++++to 2.72367e-007
Heightened Def Con from 2.72368e-007 ++++++++++++++++++++++++++++to 2.72368e-007
Heightened Def Con from 2.72368e-007 +++++++++++++++++++++++++++++to 2.73368e-007
Heightened Def Con from 2.73369e-007 ++++++++++++++++++++++++++++to 2.73369e-007
Heightened Def Con from 2.73369e-007 ++++++++++++++++++++++++++++to 2.73369e-007
Heightened Def Con from 2.73369e-007 +++++++++++++++++++++++++++++to 2.74369e-007
Heightened Def Con from 2.7437e-007 ++++++++++++++++++++++++++++to 2.7437e-007
Heightened Def Con from 2.7437e-007 ++++++++++++++++++++++++++++to 2.7437e-007
Heightened Def Con from 2.7437e-007 +++++++++++++++++++++++++++++to 2.7537e-007
Heightened Def Con from 2.75372e-007 +++++++++++++++++++++++++++to 2.75372e-007
Heightened Def Con from 2.75372e-007 +++++++++++++++++++++++++++++to 2.76372e-007
Heightened Def Con from 2.76373e-007 ++++++++++++++++++++++++++++to 2.76373e-007
Heightened Def Con from 2.76373e-007 ++++++++++++++++++++++++++++to 2.76373e-007
Heightened Def Con from 2.76373e-007 +++++++++++++++++++++++++++++to 2.77373e-007
Heightened Def Con from 2.77374e-007 +++++++++++++++++++++++++++++to 2.78374e-007
Heightened Def Con from 2.78376e-007 +++++++++++++++++++++++++++to 2.78376e-007
Heightened Def Con from 2.78376e-007 +++++++++++++++++++++++++++++to 2.79376e-007
Heightened Def Con from 2.79377e-007 +++++++++++++++++++++++++++to 2.79377e-007
Heightened Def Con from 2.79377e-007 +++++++++++++++++++++++++++++to 2.80377e-007
Heightened Def Con from 2.80378e-007 ++++++++++++++++++++++++++to 2.80378e-007
Heightened Def Con from 2.80378e-007 +++++++++++++++++++++++++++++to 2.81378e-007
Heightened Def Con from 2.8138e-007 +++++++++++++++++++++++++to 2.8138e-007
Heightened Def Con from 2.8138e-007 +++++++++++++++++++++++++++++to 2.8238e-007
Heightened Def Con from 2.82381e-007 +++++++++++++++++++++++++++++to 2.83381e-007
Heightened Def Con from 2.83382e-007 +++++++++++++++++++++++++++++to 2.84382e-007
Heightened Def Con from 2.84384e-007 +++++++++++++++++++++++++++++to 2.85384e-007
Heightened Def Con from 2.85385e-007 ++++++++++++++++++++++++++++to 2.85385e-007
Heightened Def Con from 2.85385e-007 +++++++++++++++++++++++++++++to 2.86385e-007
Heightened Def Con from 2.86386e-007 +++++++++++++++++++++++++++to 2.86386e-007
Heightened Def Con from 2.86386e-007 +++++++++++++++++++++++++++++to 2.87386e-007
Heightened Def Con from 2.87388e-007 ++++++++++++++++++++++++++++to 2.87388e-007
Heightened Def Con from 2.87388e-007 +++++++++++++++++++++++++++++to 2.88388e-007
Heightened Def Con from 2.88389e-007 ++++++++++++++++++++++++++to 2.88389e-007
Heightened Def Con from 2.88389e-007 +++++++++++++++++++++++++++++to 2.89389e-007
Heightened Def Con from 2.8939e-007 ++++++++++++++++++++++++++++to 2.8939e-007
Heightened Def Con from 2.8939e-007 ++++++++++++++++++++++++++++to 2.8939e-007
Heightened Def Con from 2.8939e-007 +++++++++++++++++++++++++++++to 2.9039e-007
Heightened Def Con from 2.90391e-007 ++++++++++++++++++++++++++++to 2.90391e-007
Heightened Def Con from 2.90391e-007 +++++++++++++++++++++++++++++to 2.91391e-007
Heightened Def Con from 2.91393e-007 +++++++++++++++++++++++++++++to 2.92393e-007
Heightened Def Con from 2.92394e-007 +++++++++++++++++++++++++++to 2.92394e-007
Heightened Def Con from 2.92394e-007 +++++++++++++++++++++++++++++to 2.93394e-007
Heightened Def Con from 2.93395e-007 ++++++++++++++++++++++++++to 2.93395e-007
Heightened Def Con from 2.93395e-007 +++++++++++++++++++++++++++++to 2.94395e-007
Heightened Def Con from 2.94397e-007 +++++++++++++++++++++++++to 2.94397e-007
Heightened Def Con from 2.94397e-007 +++++++++++++++++++++++++++++to 2.95397e-007
Heightened Def Con from 2.95398e-007 +++++++++++++++++++to 2.95398e-007
Heightened Def Con from 2.95398e-007 +++++++++++++++++++++++++++++to 2.96398e-007
Heightened Def Con from 2.96399e-007 +++++++++++++++++++++++++++++to 2.97399e-007
Heightened Def Con from 2.97401e-007 +++++++++++++++++++++++++++++to 2.98401e-007
Heightened Def Con from 2.98402e-007 ++++++++++++++++++++++++++++to 2.98402e-007
Heightened Def Con from 2.98402e-007 +++++++++++++++++++++++++++++to 2.99402e-007
Heightened Def Con from 2.99403e-007 +++++++++++++++++++++++++++to 2.99403e-007
Heightened Def Con from 2.99403e-007 +++++++++++++++++++++++++++++to 3.00403e-007
Heightened Def Con from 3.00405e-007 ++++++++++++++++++++++++++++to 3.00405e-007
Heightened Def Con from 3.00405e-007 +++++++++++++++++++++++++++++to 3.01405e-007
Heightened Def Con from 3.01406e-007 ++++++++++++++++++++++++++to 3.01406e-007
Heightened Def Con from 3.01406e-007 +++++++++++++++++++++++++++++to 3.02406e-007
Heightened Def Con from 3.02407e-007 ++++++++++++++++++++++++++++to 3.02407e-007
Heightened Def Con from 3.02407e-007 ++++++++++++++++++++++++++++to 3.02407e-007
Heightened Def Con from 3.02407e-007 +++++++++++++++++++++++++++++to 3.03407e-007
Heightened Def Con from 3.03409e-007 ++++++++++++++++++++++++++++to 3.03409e-007
Heightened Def Con from 3.03409e-007 +++++++++++++++++++++++++++++to 3.04409e-007
Heightened Def Con from 3.0441e-007 ++++++++++++++++++++++++++++to 3.0441e-007
Heightened Def Con from 3.0441e-007 ++++++++++++++++++++++++++++to 3.0441e-007
Heightened Def Con from 3.0441e-007 +++++++++++++++++++++++++++++to 3.0541e-007
Heightened Def Con from 3.05411e-007 +++++++++++++++++++++++++++to 3.05411e-007
Heightened Def Con from 3.05411e-007 +++++++++++++++++++++++++++++to 3.06411e-007
Heightened Def Con from 3.06412e-007 ++++++++++++++++++++++++++to 3.06412e-007
Heightened Def Con from 3.06412e-007 +++++++++++++++++++++++++++++to 3.07412e-007
Heightened Def Con from 3.07414e-007 +++++++++++++++++++++++++to 3.07414e-007
Heightened Def Con from 3.07414e-007 +++++++++++++++++++++++++++++to 3.08414e-007
Heightened Def Con from 3.08415e-007 +++++++++++++++++++++++to 3.08415e-007
Heightened Def Con from 3.08415e-007 +++++++++++++++++++++++++++++to 3.09415e-007
Heightened Def Con from 3.09416e-007 +++++++++++++++++++++++++++++to 3.10416e-007
Heightened Def Con from 3.10418e-007 +++++++++++++++++++++++++++++to 3.11418e-007
Heightened Def Con from 3.11419e-007 ++++++++++++++++++++++++++++to 3.11419e-007
Heightened Def Con from 3.11419e-007 +++++++++++++++++++++++++++++to 3.12419e-007
Heightened Def Con from 3.1242e-007 +++++++++++++++++++++++++++++to 3.1342e-007
Heightened Def Con from 3.13422e-007 ++++++++++++++++++++++++++++to 3.13422e-007
Heightened Def Con from 3.13422e-007 +++++++++++++++++++++++++++++to 3.14422e-007
Heightened Def Con from 3.14423e-007 +++++++++++++++++++++++++++++to 3.15423e-007
Heightened Def Con from 3.15424e-007 ++++++++++++++++++++++++++++to 3.15424e-007
Heightened Def Con from 3.15424e-007 ++++++++++++++++++++++++++++to 3.15424e-007
Heightened Def Con from 3.15424e-007 +++++++++++++++++++++++++++++to 3.16424e-007
Heightened Def Con from 3.16426e-007 ++++++++++++++++++++++++++++to 3.16426e-007
Heightened Def Con from 3.16426e-007 ++++++++++++++++++++++++++++to 3.16426e-007
Heightened Def Con from 3.16426e-007 +++++++++++++++++++++++++++++to 3.17426e-007
Heightened Def Con from 3.17427e-007 +++++++++++++++++++++++++++to 3.17427e-007
Heightened Def Con from 3.17427e-007 +++++++++++++++++++++++++++++to 3.18427e-007
Heightened Def Con from 3.18428e-007 +++++++++++++++++++++++++++to 3.18428e-007
Heightened Def Con from 3.18428e-007 +++++++++++++++++++++++++++++to 3.19428e-007
Heightened Def Con from 3.1943e-007 ++++++++++++++++++++++++++to 3.1943e-007
Heightened Def Con from 3.1943e-007 +++++++++++++++++++++++++++++to 3.2043e-007
Heightened Def Con from 3.20431e-007 ++++++++++++++++++++++++++to 3.20431e-007
Heightened Def Con from 3.20431e-007 +++++++++++++++++++++++++++++to 3.21431e-007
Heightened Def Con from 3.21432e-007 ++++++++++++++++++++++++to 3.21432e-007
Heightened Def Con from 3.21432e-007 +++++++++++++++++++++++++++++to 3.22432e-007
Heightened Def Con from 3.22433e-007 +++++++++++++++++++++++++++++to 3.23433e-007
Heightened Def Con from 3.23435e-007 +++++++++++++++++++++++++++++to 3.24435e-007
Heightened Def Con from 3.24436e-007 ++++++++++++++++++++++++++++to 3.24436e-007
Heightened Def Con from 3.24436e-007 +++++++++++++++++++++++++++++to 3.25436e-007
Heightened Def Con from 3.25437e-007 ++++++++++++++++++++++++++++to 3.25437e-007
Heightened Def Con from 3.25437e-007 ++++++++++++++++++++++++++++to 3.25437e-007
Heightened Def Con from 3.25437e-007 +++++++++++++++++++++++++++++to 3.26437e-007
Heightened Def Con from 3.26439e-007 ++++++++++++++++++++++++++++to 3.26439e-007
Heightened Def Con from 3.26439e-007 ++++++++++++++++++++++++++++to 3.26439e-007
Heightened Def Con from 3.26439e-007 +++++++++++++++++++++++++++++to 3.27439e-007
Heightened Def Con from 3.2744e-007 ++++++++++++++++++++++++++++to 3.2744e-007
Heightened Def Con from 3.2744e-007 ++++++++++++++++++++++++++++to 3.2744e-007
Heightened Def Con from 3.2744e-007 +++++++++++++++++++++++++++++to 3.2844e-007
Heightened Def Con from 3.28441e-007 +++++++++++++++++++++++++++to 3.28441e-007
Heightened Def Con from 3.28441e-007 +++++++++++++++++++++++++++++to 3.29441e-007
Heightened Def Con from 3.29443e-007 ++++++++++++++++++++++++++++to 3.29443e-007
Heightened Def Con from 3.29443e-007 ++++++++++++++++++++++++++++to 3.29443e-007
Heightened Def Con from 3.29443e-007 +++++++++++++++++++++++++++++to 3.30443e-007
Heightened Def Con from 3.30444e-007 +++++++++++++++++++++++++++++to 3.31444e-007
Heightened Def Con from 3.31445e-007 +++++++++++++++++++++++++++to 3.31445e-007
Heightened Def Con from 3.31445e-007 +++++++++++++++++++++++++++++to 3.32445e-007
Heightened Def Con from 3.32447e-007 ++++++++++++++++++++++++++to 3.32447e-007
Heightened Def Con from 3.32447e-007 +++++++++++++++++++++++++++++to 3.33447e-007
Heightened Def Con from 3.33448e-007 ++++++++++++++++++++++++++to 3.33448e-007
Heightened Def Con from 3.33448e-007 +++++++++++++++++++++++++++++to 3.34448e-007
Heightened Def Con from 3.34449e-007 ++++++++++++++++++++++++to 3.34449e-007
Heightened Def Con from 3.34449e-007 +++++++++++++++++++++++++++++to 3.35449e-007
Heightened Def Con from 3.35451e-007 +++++++++++++++++++++++++++++to 3.36451e-007
Heightened Def Con from 3.36452e-007 +++++++++++++++++++++++++++++to 3.37452e-007
Heightened Def Con from 3.37453e-007 +++++++++++++++++++++++++++++to 3.38453e-007
Heightened Def Con from 3.38454e-007 ++++++++++++++++++++++++++++to 3.38454e-007
Heightened Def Con from 3.38454e-007 +++++++++++++++++++++++++++++to 3.39454e-007
Heightened Def Con from 3.39456e-007 ++++++++++++++++++++++++++++to 3.39456e-007
Heightened Def Con from 3.39456e-007 ++++++++++++++++++++++++++++to 3.39456e-007
Heightened Def Con from 3.39456e-007 +++++++++++++++++++++++++++++to 3.40456e-007
Heightened Def Con from 3.40457e-007 +++++++++++++++++++++++++++to 3.40457e-007
Heightened Def Con from 3.40457e-007 +++++++++++++++++++++++++++++to 3.41457e-007
Heightened Def Con from 3.41458e-007 ++++++++++++++++++++++++++++to 3.41458e-007
Heightened Def Con from 3.41458e-007 ++++++++++++++++++++++++++++to 3.41458e-007
Heightened Def Con from 3.41458e-007 +++++++++++++++++++++++++++++to 3.42458e-007
Heightened Def Con from 3.4246e-007 ++++++++++++++++++++++++to 3.4246e-007
Heightened Def Con from 3.4246e-007 +++++++++++++++++++++++++++++to 3.4346e-007
Heightened Def Con from 3.43461e-007 +++++++++++++++++++++++++++to 3.43461e-007
Heightened Def Con from 3.43461e-007 +++++++++++++++++++++++++++++to 3.44461e-007
Heightened Def Con from 3.44462e-007 +++++++++++++++++++++++++++to 3.44462e-007
Heightened Def Con from 3.44462e-007 +++++++++++++++++++++++++++++to 3.45462e-007
Heightened Def Con from 3.45464e-007 ++++++++++++++++++++++++++to 3.45464e-007
Heightened Def Con from 3.45464e-007 +++++++++++++++++++++++++++++to 3.46464e-007
Heightened Def Con from 3.46465e-007 ++++++++++++++++++++++++++to 3.46465e-007
Heightened Def Con from 3.46465e-007 +++++++++++++++++++++++++++++to 3.47465e-007
Heightened Def Con from 3.47466e-007 ++++++++++++++++++++++++to 3.47466e-007
Heightened Def Con from 3.47466e-007 +++++++++++++++++++++++++++++to 3.48466e-007
Heightened Def Con from 3.48468e-007 +++++++++++++++++++++++++++++to 3.49468e-007
Heightened Def Con from 3.49469e-007 +++++++++++++++++++++++++++++to 3.50469e-007
Heightened Def Con from 3.5047e-007 +++++++++++++++++++++++++++++to 3.5147e-007
Heightened Def Con from 3.51472e-007 ++++++++++++++++++++++++++++to 3.51472e-007
Heightened Def Con from 3.51472e-007 +++++++++++++++++++++++++++++to 3.52472e-007
Heightened Def Con from 3.52473e-007 +++++++++++++++++++++++++++to 3.52473e-007
Heightened Def Con from 3.52473e-007 +++++++++++++++++++++++++++++to 3.53473e-007
Heightened Def Con from 3.53474e-007 ++++++++++++++++++++++++++++to 3.53474e-007
Heightened Def Con from 3.53474e-007 ++++++++++++++++++++++++++++to 3.53474e-007
Heightened Def Con from 3.53474e-007 +++++++++++++++++++++++++++++to 3.54474e-007
Heightened Def Con from 3.54475e-007 ++++++++++++++++++++++++++++to 3.54475e-007
Heightened Def Con from 3.54475e-007 +++++++++++++++++++++++++++++to 3.55475e-007
Heightened Def Con from 3.55477e-007 ++++++++++++++++++++++++++++to 3.55477e-007
Heightened Def Con from 3.55477e-007 ++++++++++++++++++++++++++++to 3.55477e-007
Heightened Def Con from 3.55477e-007 +++++++++++++++++++++++++++++to 3.56477e-007
Heightened Def Con from 3.56478e-007 ++++++++++++++++++++++++++++to 3.56478e-007
Heightened Def Con from 3.56478e-007 ++++++++++++++++++++++++++++to 3.56478e-007
Heightened Def Con from 3.56478e-007 +++++++++++++++++++++++++++++to 3.57478e-007
Heightened Def Con from 3.57479e-007 ++++++++++++++++++++++++++++to 3.57479e-007
Heightened Def Con from 3.57479e-007 ++++++++++++++++++++++++++++to 3.57479e-007
Heightened Def Con from 3.57479e-007 +++++++++++++++++++++++++++++to 3.58479e-007
Heightened Def Con from 3.58481e-007 ++++++++++++++++++++++++++to 3.58481e-007
Heightened Def Con from 3.58481e-007 +++++++++++++++++++++++++++++to 3.59481e-007
Heightened Def Con from 3.59482e-007 ++++++++++++++++++++++++++to 3.59482e-007
Heightened Def Con from 3.59482e-007 +++++++++++++++++++++++++++++to 3.60482e-007
Heightened Def Con from 3.60483e-007 +++++++++++++++++++++++++to 3.60483e-007
Heightened Def Con from 3.60483e-007 +++++++++++++++++++++++++++++to 3.61483e-007
Heightened Def Con from 3.61485e-007 +++++++++++++++++++++++++++++to 3.62485e-007
Heightened Def Con from 3.62486e-007 +++++++++++++++++++++++++++++to 3.63486e-007
Heightened Def Con from 3.63487e-007 +++++++++++++++++++++++++++++to 3.64487e-007
Heightened Def Con from 3.64489e-007 ++++++++++++++++++++++++++++to 3.64489e-007
Heightened Def Con from 3.64489e-007 +++++++++++++++++++++++++++++to 3.65489e-007
Heightened Def Con from 3.6549e-007 ++++++++++++++++++++++++++++to 3.6549e-007
Heightened Def Con from 3.6549e-007 +++++++++++++++++++++++++++++to 3.6649e-007
Heightened Def Con from 3.66491e-007 ++++++++++++++++++++++++++++to 3.66491e-007
Heightened Def Con from 3.66491e-007 +++++++++++++++++++++++++++++to 3.67491e-007
[...]
Heightened Def Con from 2.87478e-006 ++++++++++++++++++++++++++to 2.87478e-006
Heightened Def Con from 2.87478e-006 +++++++++++++++++++++++++++++to 2.87578e-006
Heightened Def Con from 2.87578e-006 ++++++++++++++++++++++++++to 2.87578e-006
Heightened Def Con from 2.87578e-006 +++++++++++++++++++++++++++++to 2.87678e-006
Heightened Def Con from 2.87678e-006 +++++++++++++++++++++++to 2.87678e-006
Heightened Def Con from 2.87678e-006 +++++++++++++++++++++++++++++to 2.87778e-006
Heightened Def Con from 2.87778e-006 +++++++++++++++++++++++++++++to 2.87878e-006
Heightened Def Con from 2.87878e-006 +++++++++++++++++++++++++++++to 2.87978e-006
Heightened Def Con from 2.87978e-006 ++++++++++++++++++++++++++++to 2.87978e-006
Heightened Def Con from 2.87978e-006 +++++++++++++++++++++++++++++to 2.88078e-006
Heightened Def Con from 2.88079e-006 ++++++++++++++++++++++++++++to 2.88079e-006
Heightened Def Con from 2.88079e-006 ++++++++++++++++++++++++++++to 2.88079e-006
Heightened Def Con from 2.88079e-006 +++++++++++++++++++++++++++++to 2.88179e-006
Heightened Def Con from 2.88179e-006 ++++++++++++++++++++++++++++to 2.88179e-006
Heightened Def Con from 2.88179e-006 ++++++++++++++++++++++++++++to 2.88179e-006
Heightened Def Con from 2.88179e-006 +++++++++++++++++++++++++++++to 2.88279e-006
Heightened Def Con from 2.88279e-006 ++++++++++++++++++++++++++++to 2.88279e-006
Heightened Def Con from 2.88279e-006 ++++++++++++++++++++++++++++to 2.88279e-006
Heightened Def Con from 2.88279e-006 +++++++++++++++++++++++++++++to 2.88379e-006
Heightened Def Con from 2.88379e-006 +++++++++++++++++++++++++++to 2.88379e-006
Heightened Def Con from 2.88379e-006 +++++++++++++++++++++++++++++to 2.88479e-006
Heightened Def Con from 2.88479e-006 ++++++++++++++++++++++++++++to 2.88479e-006
Heightened Def Con from 2.88479e-006 ++++++++++++++++++++++++++++to 2.88479e-006
Heightened Def Con from 2.88479e-006 +++++++++++++++++++++++++++++to 2.88579e-006
Heightened Def Con from 2.88579e-006 +++++++++++++++++++++++++++++to 2.88679e-006
Heightened Def Con from 2.88679e-006 +++++++++++++++++++++++++++to 2.88679e-006
Heightened Def Con from 2.88679e-006 +++++++++++++++++++++++++++++to 2.88779e-006
Heightened Def Con from 2.8878e-006 ++++++++++++++++++++++++++to 2.8878e-006
Heightened Def Con from 2.8878e-006 +++++++++++++++++++++++++++++to 2.8888e-006
Heightened Def Con from 2.8888e-006 ++++++++++++++++++++++++++to 2.8888e-006
Heightened Def Con from 2.8888e-006 +++++++++++++++++++++++++++++to 2.8898e-006
Heightened Def Con from 2.8898e-006 ++++++++++++++++++++++++to 2.8898e-006
Heightened Def Con from 2.8898e-006 +++++++++++++++++++++++++++++to 2.8908e-006
Heightened Def Con from 2.8908e-006 +++++++++++++++++++++++++++++to 2.8918e-006
Heightened Def Con from 2.8918e-006 +++++++++++++++++++++++++++++to 2.8928e-006
Heightened Def Con from 2.8928e-006 +++++++++++++++++++++++++++++to 2.8938e-006
Heightened Def Con from 2.8938e-006 ++++++++++++++++++++++++++++to 2.8938e-006
Heightened Def Con from 2.8938e-006 +++++++++++++++++++++++++++++to 2.8948e-006
Heightened Def Con from 2.8948e-006 +++++++++++++++++++++++++++to 2.8948e-006
Heightened Def Con from 2.8948e-006 +++++++++++++++++++++++++++++to 2.8958e-006
Heightened Def Con from 2.89581e-006 ++++++++++++++++++++++++++++to 2.89581e-006
Heightened Def Con from 2.89581e-006 ++++++++++++++++++++++++++++to 2.89581e-006
Heightened Def Con from 2.89581e-006 +++++++++++++++++++++++++++++to 2.89681e-006
Heightened Def Con from 2.89681e-006 +++++++++++++++++++++++++++++to 2.89781e-006
Heightened Def Con from 2.89781e-006 ++++++++++++++++++++++++++++to 2.89781e-006
Heightened Def Con from 2.89781e-006 ++++++++++++++++++++++++++++to 2.89781e-006
Heightened Def Con from 2.89781e-006 +++++++++++++++++++++++++++++to 2.89881e-006
Heightened Def Con from 2.89881e-006 +++++++++++++++++++++++++++++to 2.89981e-006
Heightened Def Con from 2.89981e-006 +++++++++++++++++++++++++++to 2.89981e-006
Heightened Def Con from 2.89981e-006 +++++++++++++++++++++++++++++to 2.90081e-006
Heightened Def Con from 2.90081e-006 ++++++++++++++++++++++++++to 2.90081e-006
Heightened Def Con from 2.90081e-006 +++++++++++++++++++++++++++++to 2.90181e-006
Heightened Def Con from 2.90181e-006 ++++++++++++++++++++++++++to 2.90181e-006
Heightened Def Con from 2.90181e-006 +++++++++++++++++++++++++++++to 2.90281e-006
Heightened Def Con from 2.90281e-006 ++++++++++++++++++++++++to 2.90281e-006
Heightened Def Con from 2.90281e-006 +++++++++++++++++++++++++++++to 2.90381e-006
Heightened Def Con from 2.90382e-006 +++++++++++++++++++++++++++++to 2.90482e-006
Heightened Def Con from 2.90482e-006 +++++++++++++++++++++++++++++to 2.90582e-006
Heightened Def Con from 2.90582e-006 +++++++++++++++++++++++++++++to 2.90682e-006
Heightened Def Con from 2.90682e-006 ++++++++++++++++++++++++++++to 2.90682e-006
Heightened Def Con from 2.90682e-006 +++++++++++++++++++++++++++++to 2.90782e-006
Heightened Def Con from 2.90782e-006 ++++++++++++++++++++++++++++to 2.90782e-006
Heightened Def Con from 2.90782e-006 ++++++++++++++++++++++++++++to 2.90782e-006
Heightened Def Con from 2.90782e-006 +++++++++++++++++++++++++++++to 2.90882e-006
Heightened Def Con from 2.90882e-006 ++++++++++++++++++++++++++++to 2.90882e-006
Heightened Def Con from 2.90882e-006 ++++++++++++++++++++++++++++to 2.90882e-006
Heightened Def Con from 2.90882e-006 +++++++++++++++++++++++++++++to 2.90982e-006
Heightened Def Con from 2.90982e-006 +++++++++++++++++++++++++++to 2.90982e-006
Heightened Def Con from 2.90982e-006 +++++++++++++++++++++++++++++to 2.91082e-006
Heightened Def Con from 2.91083e-006 ++++++++++++++++++++++++++++to 2.91083e-006
Heightened Def Con from 2.91083e-006 ++++++++++++++++++++++++++++to 2.91083e-006
Heightened Def Con from 2.91083e-006 +++++++++++++++++++++++++++++to 2.91183e-006
Heightened Def Con from 2.91183e-006 +++++++++++++++++++++++++++++to 2.91283e-006
Heightened Def Con from 2.91283e-006 +++++++++++++++++++++++++++to 2.91283e-006
Heightened Def Con from 2.91283e-006 +++++++++++++++++++++++++++++to 2.91383e-006
Heightened Def Con from 2.91383e-006 +++++++++++++++++++++++++++to 2.91383e-006
Heightened Def Con from 2.91383e-006 +++++++++++++++++++++++++++++to 2.91483e-006
Heightened Def Con from 2.91483e-006 ++++++++++++++++++++++++++to 2.91483e-006
Heightened Def Con from 2.91483e-006 +++++++++++++++++++++++++++++to 2.91583e-006
Heightened Def Con from 2.91583e-006 +++++++++++++++++++++++++to 2.91583e-006
Heightened Def Con from 2.91583e-006 +++++++++++++++++++++++++++++to 2.91683e-006
Heightened Def Con from 2.91683e-006 +++++++++++++++++++++++++++++to 2.91783e-006
Heightened Def Con from 2.91783e-006 +++++++++++++++++++++++++++++to 2.91883e-006
Heightened Def Con from 2.91884e-006 +++++++++++++++++++++++++++++to 2.91984e-006
Heightened Def Con from 2.91984e-006 ++++++++++++++++++++++++++++to 2.91984e-006
Heightened Def Con from 2.91984e-006 +++++++++++++++++++++++++++++to 2.92084e-006
Heightened Def Con from 2.92084e-006 ++++++++++++++++++++++++++to 2.92084e-006
Heightened Def Con from 2.92084e-006 +++++++++++++++++++++++++++++to 2.92184e-006
Heightened Def Con from 2.92184e-006 ++++++++++++++++++++++++++++to 2.92184e-006
Heightened Def Con from 2.92184e-006 ++++++++++++++++++++++++++++to 2.92184e-006
Heightened Def Con from 2.92184e-006 +++++++++++++++++++++++++++++to 2.92284e-006
Heightened Def Con from 2.92284e-006 ++++++++++++++++++++++++++++to 2.92284e-006
Heightened Def Con from 2.92284e-006 +++++++++++++++++++++++++++++to 2.92384e-006
Heightened Def Con from 2.92384e-006 ++++++++++++++++++++++++++++to 2.92384e-006
Heightened Def Con from 2.92384e-006 +++++++++++++++++++++++++++++to 2.92484e-006
Heightened Def Con from 2.92484e-006 ++++++++++++++++++++++++++++to 2.92484e-006
Heightened Def Con from 2.92484e-006 ++++++++++++++++++++++++++++to 2.92484e-006
Heightened Def Con from 2.92484e-006 +++++++++++++++++++++++++++++to 2.92584e-006
Heightened Def Con from 2.92584e-006 +++++++++++++++++++++++++++++to 2.92684e-006
Heightened Def Con from 2.92685e-006 +++++++++++++++++++++++++++to 2.92685e-006
Heightened Def Con from 2.92685e-006 +++++++++++++++++++++++++++++to 2.92785e-006
Heightened Def Con from 2.92785e-006 ++++++++++++++++++++++++++to 2.92785e-006
Heightened Def Con from 2.92785e-006 +++++++++++++++++++++++++++++to 2.92885e-006
Heightened Def Con from 2.92885e-006 +++++++++++++++++++++++++to 2.92885e-006
Heightened Def Con from 2.92885e-006 +++++++++++++++++++++++++++++to 2.92985e-006
Heightened Def Con from 2.92985e-006 +++++++++++++++++++++++++++++to 2.93085e-006
Heightened Def Con from 2.93085e-006 +++++++++++++++++++++++++++++to 2.93185e-006
Heightened Def Con from 2.93185e-006 +++++++++++++++++++++++++++++to 2.93285e-006
Heightened Def Con from 2.93285e-006 ++++++++++++++++++++++++++++to 2.93285e-006
Heightened Def Con from 2.93285e-006 +++++++++++++++++++++++++++++to 2.93385e-006
Heightened Def Con from 2.93386e-006 ++++++++++++++++++++++++++++to 2.93386e-006
Heightened Def Con from 2.93386e-006 +++++++++++++++++++++++++++++to 2.93486e-006
Heightened Def Con from 2.93486e-006 ++++++++++++++++++++++++++++to 2.93486e-006
Heightened Def Con from 2.93486e-006 +++++++++++++++++++++++++++++to 2.93586e-006
Heightened Def Con from 2.93586e-006 ++++++++++++++++++++++++++++to 2.93586e-006
Heightened Def Con from 2.93586e-006 ++++++++++++++++++++++++++++to 2.93586e-006
Heightened Def Con from 2.93586e-006 +++++++++++++++++++++++++++++to 2.93686e-006
Heightened Def Con from 2.93686e-006 ++++++++++++++++++++++++++to 2.93686e-006
Heightened Def Con from 2.93686e-006 +++++++++++++++++++++++++++++to 2.93786e-006
Heightened Def Con from 2.93786e-006 +++++++++++++++++++++++++++++to 2.93886e-006
Heightened Def Con from 2.93886e-006 ++++++++++++++++++++++++++++to 2.93886e-006
Heightened Def Con from 2.93886e-006 +++++++++++++++++++++++++++++to 2.93986e-006
Heightened Def Con from 2.93986e-006 ++++++++++++++++++++++++++++to 2.93986e-006
Heightened Def Con from 2.93986e-006 +++++++++++++++++++++++++++++to 2.94086e-006
Heightened Def Con from 2.94086e-006 ++++++++++++++++++++++++++++to 2.94086e-006
Heightened Def Con from 2.94086e-006 ++++++++++++++++++++++++++++to 2.94086e-006
Heightened Def Con from 2.94086e-006 +++++++++++++++++++++++++++++to 2.94186e-006
Heightened Def Con from 2.94187e-006 +++++++++++++++++++++++++++to 2.94187e-006
Heightened Def Con from 2.94187e-006 +++++++++++++++++++++++++++++to 2.94287e-006
Heightened Def Con from 2.94287e-006 ++++++++++++++++++++++++++++to 2.94287e-006
Heightened Def Con from 2.94287e-006 ++++++++++++++++++++++++++++to 2.94287e-006
Heightened Def Con from 2.94287e-006 +++++++++++++++++++++++++++++to 2.94387e-006
Heightened Def Con from 2.94387e-006 +++++++++++++++++++++++++to 2.94387e-006
Heightened Def Con from 2.94387e-006 +++++++++++++++++++++++++++++to 2.94487e-006
Heightened Def Con from 2.94487e-006 +++++++++++++++++++++++++++to 2.94487e-006
Heightened Def Con from 2.94487e-006 +++++++++++++++++++++++++++++to 2.94587e-006
Heightened Def Con from 2.94587e-006 +++++++++++++++++++++++++++to 2.94587e-006
Heightened Def Con from 2.94587e-006 +++++++++++++++++++++++++++++to 2.94687e-006
Heightened Def Con from 2.94687e-006 ++++++++++++++++++++++++++to 2.94687e-006
Heightened Def Con from 2.94687e-006 +++++++++++++++++++++++++++++to 2.94787e-006
Heightened Def Con from 2.94787e-006 +++++++++++++++++++++++++to 2.94787e-006
Heightened Def Con from 2.94787e-006 +++++++++++++++++++++++++++++to 2.94887e-006
Heightened Def Con from 2.94888e-006 +++++++++++++++++++++++++++++to 2.94988e-006
Heightened Def Con from 2.94988e-006 +++++++++++++++++++++++++++++to 2.95088e-006
Heightened Def Con from 2.95088e-006 +++++++++++++++++++++++++++++to 2.95188e-006
Heightened Def Con from 2.95188e-006 ++++++++++++++++++++++++++++to 2.95188e-006
Heightened Def Con from 2.95188e-006 +++++++++++++++++++++++++++++to 2.95288e-006
Heightened Def Con from 2.95288e-006 ++++++++++++++++++++++++++++to 2.95288e-006
Heightened Def Con from 2.95288e-006 +++++++++++++++++++++++++++++to 2.95388e-006
Heightened Def Con from 2.95388e-006 ++++++++++++++++++++++++++++to 2.95388e-006
Heightened Def Con from 2.95388e-006 +++++++++++++++++++++++++++++to 2.95488e-006
Heightened Def Con from 2.95488e-006 ++++++++++++++++++++++++++++to 2.95488e-006
Heightened Def Con from 2.95488e-006 ++++++++++++++++++++++++++++to 2.95488e-006
Heightened Def Con from 2.95488e-006 +++++++++++++++++++++++++++++to 2.95588e-006
Heightened Def Con from 2.95588e-006 ++++++++++++++++++++++++++to 2.95588e-006
Heightened Def Con from 2.95588e-006 +++++++++++++++++++++++++++++to 2.95688e-006
Heightened Def Con from 2.95689e-006 +++++++++++++++++++++++++++to 2.95689e-006
Heightened Def Con from 2.95689e-006 +++++++++++++++++++++++++++++to 2.95789e-006
Heightened Def Con from 2.95789e-006 +++++++++++++++++++++++++++to 2.95789e-006
Heightened Def Con from 2.95789e-006 +++++++++++++++++++++++++++++to 2.95889e-006
Heightened Def Con from 2.95889e-006 +++++++++++++++++++++++++++to 2.95889e-006
Heightened Def Con from 2.95889e-006 +++++++++++++++++++++++++++++to 2.95989e-006
Heightened Def Con from 2.95989e-006 ++++++++++++++++++++++++++to 2.95989e-006
Heightened Def Con from 2.95989e-006 +++++++++++++++++++++++++++++to 2.96089e-006
Heightened Def Con from 2.96089e-006 +++++++++++++++++++++++++++++to 2.96189e-006
Heightened Def Con from 2.96189e-006 +++++++++++++++++++++++++++++to 2.96289e-006
Heightened Def Con from 2.96289e-006 ++++++++++++++++++++++++++++to 2.96289e-006
Heightened Def Con from 2.96289e-006 +++++++++++++++++++++++++++++to 2.96389e-006
Heightened Def Con from 2.96389e-006 ++++++++++++++++++++++++++++to 2.96389e-006
Heightened Def Con from 2.96389e-006 +++++++++++++++++++++++++++++to 2.96489e-006
Heightened Def Con from 2.9649e-006 ++++++++++++++++++++++++++++to 2.9649e-006
Heightened Def Con from 2.9649e-006 +++++++++++++++++++++++++++++to 2.9659e-006
Heightened Def Con from 2.9659e-006 ++++++++++++++++++++++++++++to 2.9659e-006
Heightened Def Con from 2.9659e-006 ++++++++++++++++++++++++++++to 2.9659e-006
Heightened Def Con from 2.9659e-006 +++++++++++++++++++++++++++++to 2.9669e-006
Heightened Def Con from 2.9669e-006 +++++++++++++++++++++++++++to 2.9669e-006
Heightened Def Con from 2.9669e-006 +++++++++++++++++++++++++++++to 2.9679e-006
Heightened Def Con from 2.9679e-006 +++++++++++++++++++++++++++to 2.9679e-006
Heightened Def Con from 2.9679e-006 +++++++++++++++++++++++++++++to 2.9689e-006
Heightened Def Con from 2.9689e-006 +++++++++++++++++++++++++++to 2.9689e-006
Heightened Def Con from 2.9689e-006 +++++++++++++++++++++++++++++to 2.9699e-006
Heightened Def Con from 2.9699e-006 +++++++++++++++++++++++++++to 2.9699e-006
Heightened Def Con from 2.9699e-006 +++++++++++++++++++++++++++++to 2.9709e-006
Heightened Def Con from 2.9709e-006 ++++++++++++++++++++++++++to 2.9709e-006
Heightened Def Con from 2.9709e-006 +++++++++++++++++++++++++++++to 2.9719e-006
Heightened Def Con from 2.97191e-006 +++++++++++++++++++++++++to 2.97191e-006
Heightened Def Con from 2.97191e-006 +++++++++++++++++++++++++++++to 2.97291e-006
Heightened Def Con from 2.97291e-006 +++++++++++++++++++++++to 2.97291e-006
Heightened Def Con from 2.97291e-006 +++++++++++++++++++++++++++++to 2.97391e-006
Heightened Def Con from 2.97391e-006 +++++++++++++++++++++++++++++to 2.97491e-006
Heightened Def Con from 2.97491e-006 +++++++++++++++++++++++++++++to 2.97591e-006
Heightened Def Con from 2.97591e-006 ++++++++++++++++++++++++++++to 2.97591e-006
Heightened Def Con from 2.97591e-006 +++++++++++++++++++++++++++++to 2.97691e-006
Heightened Def Con from 2.97691e-006 +++++++++++++++++++++++++to 2.97691e-006
Heightened Def Con from 2.97691e-006 +++++++++++++++++++++++++++++to 2.97791e-006
Heightened Def Con from 2.97791e-006 ++++++++++++++++++++++++++++to 2.97791e-006
Heightened Def Con from 2.97791e-006 +++++++++++++++++++++++++++++to 2.97891e-006
Heightened Def Con from 2.97891e-006 +++++++++++++++++++++++++++++to 2.97991e-006
Heightened Def Con from 2.97992e-006 ++++++++++++++++++++++++++++to 2.97992e-006
Heightened Def Con from 2.97992e-006 ++++++++++++++++++++++++++++to 2.97992e-006
Heightened Def Con from 2.97992e-006 +++++++++++++++++++++++++++++to 2.98092e-006
Heightened Def Con from 2.98092e-006 ++++++++++++++++++++++++++++to 2.98092e-006
Heightened Def Con from 2.98092e-006 +++++++++++++++++++++++++++++to 2.98192e-006
Heightened Def Con from 2.98192e-006 ++++++++++++++++++++++++++++to 2.98192e-006
Heightened Def Con from 2.98192e-006 ++++++++++++++++++++++++++++to 2.98192e-006
Heightened Def Con from 2.98192e-006 +++++++++++++++++++++++++++++to 2.98292e-006
Heightened Def Con from 2.98292e-006 ++++++++++++++++++++++++++++to 2.98292e-006
Heightened Def Con from 2.98292e-006 ++++++++++++++++++++++++++++to 2.98292e-006
Heightened Def Con from 2.98292e-006 +++++++++++++++++++++++++++++to 2.98392e-006
Heightened Def Con from 2.98392e-006 +++++++++++++++++++++++++++to 2.98392e-006
Heightened Def Con from 2.98392e-006 +++++++++++++++++++++++++++++to 2.98492e-006
Heightened Def Con from 2.98492e-006 ++++++++++++++++++++++++++to 2.98492e-006
Heightened Def Con from 2.98492e-006 +++++++++++++++++++++++++++++to 2.98592e-006
Heightened Def Con from 2.98592e-006 ++++++++++++++++++++++++to 2.98592e-006
Heightened Def Con from 2.98592e-006 +++++++++++++++++++++++++++++to 2.98692e-006
Heightened Def Con from 2.98693e-006 +++++++++++++++++++++++++++++to 2.98793e-006
Heightened Def Con from 2.98793e-006 +++++++++++++++++++++++++++++to 2.98893e-006
Heightened Def Con from 2.98893e-006 ++++++++++++++++++++++++++++to 2.98893e-006
Heightened Def Con from 2.98893e-006 +++++++++++++++++++++++++++++to 2.98993e-006
Heightened Def Con from 2.98993e-006 +++++++++++++++++++++++++++++to 2.99093e-006
Heightened Def Con from 2.99093e-006 ++++++++++++++++++++++++++++to 2.99093e-006
Heightened Def Con from 2.99093e-006 +++++++++++++++++++++++++++++to 2.99193e-006
Heightened Def Con from 2.99193e-006 +++++++++++++++++++++++++++++to 2.99293e-006
Heightened Def Con from 2.99293e-006 ++++++++++++++++++++++++++++to 2.99293e-006
Heightened Def Con from 2.99293e-006 ++++++++++++++++++++++++++++to 2.99293e-006
Heightened Def Con from 2.99293e-006 +++++++++++++++++++++++++++++to 2.99393e-006
Heightened Def Con from 2.99393e-006 ++++++++++++++++++++++++++++to 2.99393e-006
Heightened Def Con from 2.99393e-006 +++++++++++++++++++++++++++++to 2.99493e-006
Heightened Def Con from 2.99494e-006 ++++++++++++++++++++++++++++to 2.99494e-006
Heightened Def Con from 2.99494e-006 ++++++++++++++++++++++++++++to 2.99494e-006
Heightened Def Con from 2.99494e-006 +++++++++++++++++++++++++++++to 2.99594e-006
Heightened Def Con from 2.99594e-006 +++++++++++++++++++++++++++to 2.99594e-006
Heightened Def Con from 2.99594e-006 +++++++++++++++++++++++++++++to 2.99694e-006
Heightened Def Con from 2.99694e-006 ++++++++++++++++++++++++++to 2.99694e-006
Heightened Def Con from 2.99694e-006 +++++++++++++++++++++++++++++to 2.99794e-006
Heightened Def Con from 2.99794e-006 ++++++++++++++++++++++++++to 2.99794e-006
Heightened Def Con from 2.99794e-006 +++++++++++++++++++++++++++++to 2.99894e-006
Heightened Def Con from 2.99894e-006 ++++++++++++++++++++++++to 2.99894e-006
Heightened Def Con from 2.99894e-006 +++++++++++++++++++++++++++++to 2.99994e-006
Heightened Def Con from 2.99994e-006 +++++++++++++++++++++++++++++to 3.00094e-006
Heightened Def Con from 3.00094e-006 +++++++++++++++++++++++++++++to 3.00194e-006
Heightened Def Con from 3.00194e-006 +++++++++++++++++++++++++++++to 3.00294e-006
Heightened Def Con from 3.00295e-006 to 3.00295e-006

Date: Thu Aug 22 16:15:34 2019
Total elapsed time: 51.668 seconds.

tnom = 27
temp = 27
method = modified trap
totiter = 22198276
traniter = 20641819
tranpoints = 1937067
accept = 241224
rejected = 1892040
matrix size = 5
fillins = 0
solver = Normal
Matrix Compiler1: 204 bytes object code size  0.1/0.1/[0.1]
Matrix Compiler2: off  [0.2]/0.4/0.3

